
This summary file was generated by HydroDyn  on 13-Sep-2023 at 16:21:57.

