
This summary file was generated by HydroDyn  on 12-Sep-2023 at 21:26:29.

WAMIT Model - Body    1
------------------
  Displaced volume (m^3)                 :     8.029210E+03
  X-offset of the center of buoyancy (m) :     0.000000E+00
  Y-offset of the center of buoyancy (m) :     0.000000E+00


  Buoyancy loads from members modelled with WAMIT, summed about ( 0.0, 0.0, 0.0 )
                                BuoyFxi               BuoyFyi               BuoyFzi               BuoyMxi               BuoyMyi               BuoyMzi 
                                  (N)                   (N)                   (N)                  (N-m)                 (N-m)                 (N-m)  
  External:                 0.000000E+00          0.000000E+00          8.070814E+07          0.000000E+00          0.000000E+00          0.000000E+00



Strip-Theory Volume Calculations(m^3)
-------------------------------------
  Structure Volume     :    0.00000E+00
  Submerged Volume     :    0.00000E+00
  Marine Growth Volume :    0.00000E+00
  Ballasted Volume     :    0.00000E+00
              NOTE: Structure, Submerged and Marine Growth volumes are based on members not modelled with WAMIT
                      Ballasted volume is computed from all members which are marked as filled in the HydroDyn input file, regardless of PropPot flag



Total Buoyancy loads summed about ( 0.0, 0.0, 0.0 )
---------------------------------------------------
                                BuoyFxi               BuoyFyi               BuoyFzi               BuoyMxi               BuoyMyi               BuoyMzi 
                                  (N)                   (N)                   (N)                  (N-m)                 (N-m)                 (N-m)  
 External:                  0.000000E+00          0.000000E+00          0.000000E+00          0.000000E+00          0.000000E+00          0.000000E+00
 Internal:                  0.000000E+00          0.000000E+00          0.000000E+00          0.000000E+00          0.000000E+00          0.000000E+00
 Total   :                  0.000000E+00          0.000000E+00          0.000000E+00          0.000000E+00          0.000000E+00          0.000000E+00
              NOTE: External buoyancy is based on members not modelled with WAMIT
                      Internal buoyancy is computed from all members which are marked as filled in the HydroDyn input file, regardless of PropPot flag
                    Total buoyancy does not include WAMIT-modelled buoyancy contribution



Weight loads about ( 0.0, 0.0, 0.0 )
------------------------------------
                                 MGFxi                 MGFyi                 MGFzi                 MGMxi                 MGMyi                 MGMzi  
                                  (N)                   (N)                   (N)                  (N-m)                 (N-m)                 (N-m)  
 Marine Growth:             0.000000E+00          0.000000E+00          0.000000E+00          0.000000E+00          0.000000E+00          0.000000E+00



Nodes (first [   4 ] are joints, remainder are internal nodes)


   i      MbrIndx      Nxi         Nyi         Nzi           R          t          tMG        MGDens     PropPot    FilledFlag  FilledMass      Cd          Ca          Cp         AxCd        AxCa        AxCp        JAxCd       JAxCa       JAxCp  
  (-)       (-)        (m)         (m)         (m)          (m)        (m)         (m)       (kg/m^3)      (-)         (-)        (kg)          (-)         (-)         (-)         (-)         (-)         (-)         (-)         (-)         (-)   
     1      -           0.0000      0.0000   -120.0000      -           -        0.000E+00   0.000E+00      -           -           -           -           -           -           -           -           -        0.000E+00   0.000E+00   1.000E+00
     2      -           0.0000      0.0000    -12.0000      -           -        0.000E+00   0.000E+00      -           -           -           -           -           -           -           -           -        0.000E+00   0.000E+00   1.000E+00
     3      -           0.0000      0.0000     -4.0000      -           -        0.000E+00   0.000E+00      -           -           -           -           -           -           -           -           -        0.000E+00   0.000E+00   1.000E+00
     4      -           0.0000      0.0000     10.0000      -           -        0.000E+00   0.000E+00      -           -           -           -           -           -           -           -           -        0.000E+00   0.000E+00   1.000E+00
     5           1      0.0000      0.0000   -119.5000   4.700E+00   1.001E-04   0.000E+00   0.000E+00           T           F   0.000E+00   6.000E-01   0.000E+00   1.000E+00   0.000E+00   1.000E+00   1.000E+00         -           -           -  
     6           1      0.0000      0.0000   -119.0000   4.700E+00   1.001E-04   0.000E+00   0.000E+00           T           F   0.000E+00   6.000E-01   0.000E+00   1.000E+00   0.000E+00   1.000E+00   1.000E+00         -           -           -  
     7           1      0.0000      0.0000   -118.5000   4.700E+00   1.001E-04   0.000E+00   0.000E+00           T           F   0.000E+00   6.000E-01   0.000E+00   1.000E+00   0.000E+00   1.000E+00   1.000E+00         -           -           -  
     8           1      0.0000      0.0000   -118.0000   4.700E+00   1.001E-04   0.000E+00   0.000E+00           T           F   0.000E+00   6.000E-01   0.000E+00   1.000E+00   0.000E+00   1.000E+00   1.000E+00         -           -           -  
     9           1      0.0000      0.0000   -117.5000   4.700E+00   9.966E-05   0.000E+00   0.000E+00           T           F   0.000E+00   6.000E-01   0.000E+00   1.000E+00   0.000E+00   1.000E+00   1.000E+00         -           -           -  
    10           1      0.0000      0.0000   -117.0000   4.700E+00   1.001E-04   0.000E+00   0.000E+00           T           F   0.000E+00   6.000E-01   0.000E+00   1.000E+00   0.000E+00   1.000E+00   1.000E+00         -           -           -  
    11           1      0.0000      0.0000   -116.5000   4.700E+00   1.001E-04   0.000E+00   0.000E+00           T           F   0.000E+00   6.000E-01   0.000E+00   1.000E+00   0.000E+00   1.000E+00   1.000E+00         -           -           -  
    12           1      0.0000      0.0000   -116.0000   4.700E+00   1.001E-04   0.000E+00   0.000E+00           T           F   0.000E+00   6.000E-01   0.000E+00   1.000E+00   0.000E+00   1.000E+00   1.000E+00         -           -           -  
    13           1      0.0000      0.0000   -115.5000   4.700E+00   1.001E-04   0.000E+00   0.000E+00           T           F   0.000E+00   6.000E-01   0.000E+00   1.000E+00   0.000E+00   1.000E+00   1.000E+00         -           -           -  
    14           1      0.0000      0.0000   -115.0000   4.700E+00   1.001E-04   0.000E+00   0.000E+00           T           F   0.000E+00   6.000E-01   0.000E+00   1.000E+00   0.000E+00   1.000E+00   1.000E+00         -           -           -  
    15           1      0.0000      0.0000   -114.5000   4.700E+00   1.001E-04   0.000E+00   0.000E+00           T           F   0.000E+00   6.000E-01   0.000E+00   1.000E+00   0.000E+00   1.000E+00   1.000E+00         -           -           -  
    16           1      0.0000      0.0000   -114.0000   4.700E+00   1.001E-04   0.000E+00   0.000E+00           T           F   0.000E+00   6.000E-01   0.000E+00   1.000E+00   0.000E+00   1.000E+00   1.000E+00         -           -           -  
    17           1      0.0000      0.0000   -113.5000   4.700E+00   1.001E-04   0.000E+00   0.000E+00           T           F   0.000E+00   6.000E-01   0.000E+00   1.000E+00   0.000E+00   1.000E+00   1.000E+00         -           -           -  
    18           1      0.0000      0.0000   -113.0000   4.700E+00   1.001E-04   0.000E+00   0.000E+00           T           F   0.000E+00   6.000E-01   0.000E+00   1.000E+00   0.000E+00   1.000E+00   1.000E+00         -           -           -  
    19           1      0.0000      0.0000   -112.5000   4.700E+00   9.966E-05   0.000E+00   0.000E+00           T           F   0.000E+00   6.000E-01   0.000E+00   1.000E+00   0.000E+00   1.000E+00   1.000E+00         -           -           -  
    20           1      0.0000      0.0000   -112.0000   4.700E+00   1.001E-04   0.000E+00   0.000E+00           T           F   0.000E+00   6.000E-01   0.000E+00   1.000E+00   0.000E+00   1.000E+00   1.000E+00         -           -           -  
    21           1      0.0000      0.0000   -111.5000   4.700E+00   1.001E-04   0.000E+00   0.000E+00           T           F   0.000E+00   6.000E-01   0.000E+00   1.000E+00   0.000E+00   1.000E+00   1.000E+00         -           -           -  
    22           1      0.0000      0.0000   -111.0000   4.700E+00   1.001E-04   0.000E+00   0.000E+00           T           F   0.000E+00   6.000E-01   0.000E+00   1.000E+00   0.000E+00   1.000E+00   1.000E+00         -           -           -  
    23           1      0.0000      0.0000   -110.5000   4.700E+00   1.001E-04   0.000E+00   0.000E+00           T           F   0.000E+00   6.000E-01   0.000E+00   1.000E+00   0.000E+00   1.000E+00   1.000E+00         -           -           -  
    24           1      0.0000      0.0000   -110.0000   4.700E+00   1.001E-04   0.000E+00   0.000E+00           T           F   0.000E+00   6.000E-01   0.000E+00   1.000E+00   0.000E+00   1.000E+00   1.000E+00         -           -           -  
    25           1      0.0000      0.0000   -109.5000   4.700E+00   1.001E-04   0.000E+00   0.000E+00           T           F   0.000E+00   6.000E-01   0.000E+00   1.000E+00   0.000E+00   1.000E+00   1.000E+00         -           -           -  
    26           1      0.0000      0.0000   -109.0000   4.700E+00   1.001E-04   0.000E+00   0.000E+00           T           F   0.000E+00   6.000E-01   0.000E+00   1.000E+00   0.000E+00   1.000E+00   1.000E+00         -           -           -  
    27           1      0.0000      0.0000   -108.5000   4.700E+00   1.001E-04   0.000E+00   0.000E+00           T           F   0.000E+00   6.000E-01   0.000E+00   1.000E+00   0.000E+00   1.000E+00   1.000E+00         -           -           -  
    28           1      0.0000      0.0000   -108.0000   4.700E+00   1.001E-04   0.000E+00   0.000E+00           T           F   0.000E+00   6.000E-01   0.000E+00   1.000E+00   0.000E+00   1.000E+00   1.000E+00         -           -           -  
    29           1      0.0000      0.0000   -107.5000   4.700E+00   1.001E-04   0.000E+00   0.000E+00           T           F   0.000E+00   6.000E-01   0.000E+00   1.000E+00   0.000E+00   1.000E+00   1.000E+00         -           -           -  
    30           1      0.0000      0.0000   -107.0000   4.700E+00   1.001E-04   0.000E+00   0.000E+00           T           F   0.000E+00   6.000E-01   0.000E+00   1.000E+00   0.000E+00   1.000E+00   1.000E+00         -           -           -  
    31           1      0.0000      0.0000   -106.5000   4.700E+00   1.001E-04   0.000E+00   0.000E+00           T           F   0.000E+00   6.000E-01   0.000E+00   1.000E+00   0.000E+00   1.000E+00   1.000E+00         -           -           -  
    32           1      0.0000      0.0000   -106.0000   4.700E+00   1.001E-04   0.000E+00   0.000E+00           T           F   0.000E+00   6.000E-01   0.000E+00   1.000E+00   0.000E+00   1.000E+00   1.000E+00         -           -           -  
    33           1      0.0000      0.0000   -105.5000   4.700E+00   1.006E-04   0.000E+00   0.000E+00           T           F   0.000E+00   6.000E-01   0.000E+00   1.000E+00   0.000E+00   1.000E+00   1.000E+00         -           -           -  
    34           1      0.0000      0.0000   -105.0000   4.700E+00   1.001E-04   0.000E+00   0.000E+00           T           F   0.000E+00   6.000E-01   0.000E+00   1.000E+00   0.000E+00   1.000E+00   1.000E+00         -           -           -  
    35           1      0.0000      0.0000   -104.5000   4.700E+00   1.001E-04   0.000E+00   0.000E+00           T           F   0.000E+00   6.000E-01   0.000E+00   1.000E+00   0.000E+00   1.000E+00   1.000E+00         -           -           -  
    36           1      0.0000      0.0000   -104.0000   4.700E+00   1.001E-04   0.000E+00   0.000E+00           T           F   0.000E+00   6.000E-01   0.000E+00   1.000E+00   0.000E+00   1.000E+00   1.000E+00         -           -           -  
    37           1      0.0000      0.0000   -103.5000   4.700E+00   1.001E-04   0.000E+00   0.000E+00           T           F   0.000E+00   6.000E-01   0.000E+00   1.000E+00   0.000E+00   1.000E+00   1.000E+00         -           -           -  
    38           1      0.0000      0.0000   -103.0000   4.700E+00   1.001E-04   0.000E+00   0.000E+00           T           F   0.000E+00   6.000E-01   0.000E+00   1.000E+00   0.000E+00   1.000E+00   1.000E+00         -           -           -  
    39           1      0.0000      0.0000   -102.5000   4.700E+00   1.001E-04   0.000E+00   0.000E+00           T           F   0.000E+00   6.000E-01   0.000E+00   1.000E+00   0.000E+00   1.000E+00   1.000E+00         -           -           -  
    40           1      0.0000      0.0000   -102.0000   4.700E+00   1.001E-04   0.000E+00   0.000E+00           T           F   0.000E+00   6.000E-01   0.000E+00   1.000E+00   0.000E+00   1.000E+00   1.000E+00         -           -           -  
    41           1      0.0000      0.0000   -101.5000   4.700E+00   1.001E-04   0.000E+00   0.000E+00           T           F   0.000E+00   6.000E-01   0.000E+00   1.000E+00   0.000E+00   1.000E+00   1.000E+00         -           -           -  
    42           1      0.0000      0.0000   -101.0000   4.700E+00   1.001E-04   0.000E+00   0.000E+00           T           F   0.000E+00   6.000E-01   0.000E+00   1.000E+00   0.000E+00   1.000E+00   1.000E+00         -           -           -  
    43           1      0.0000      0.0000   -100.5000   4.700E+00   1.001E-04   0.000E+00   0.000E+00           T           F   0.000E+00   6.000E-01   0.000E+00   1.000E+00   0.000E+00   1.000E+00   1.000E+00         -           -           -  
    44           1      0.0000      0.0000   -100.0000   4.700E+00   1.001E-04   0.000E+00   0.000E+00           T           F   0.000E+00   6.000E-01   0.000E+00   1.000E+00   0.000E+00   1.000E+00   1.000E+00         -           -           -  
    45           1      0.0000      0.0000    -99.5000   4.700E+00   1.001E-04   0.000E+00   0.000E+00           T           F   0.000E+00   6.000E-01   0.000E+00   1.000E+00   0.000E+00   1.000E+00   1.000E+00         -           -           -  
    46           1      0.0000      0.0000    -99.0000   4.700E+00   1.001E-04   0.000E+00   0.000E+00           T           F   0.000E+00   6.000E-01   0.000E+00   1.000E+00   0.000E+00   1.000E+00   1.000E+00         -           -           -  
    47           1      0.0000      0.0000    -98.5000   4.700E+00   1.001E-04   0.000E+00   0.000E+00           T           F   0.000E+00   6.000E-01   0.000E+00   1.000E+00   0.000E+00   1.000E+00   1.000E+00         -           -           -  
    48           1      0.0000      0.0000    -98.0000   4.700E+00   1.001E-04   0.000E+00   0.000E+00           T           F   0.000E+00   6.000E-01   0.000E+00   1.000E+00   0.000E+00   1.000E+00   1.000E+00         -           -           -  
    49           1      0.0000      0.0000    -97.5000   4.700E+00   1.001E-04   0.000E+00   0.000E+00           T           F   0.000E+00   6.000E-01   0.000E+00   1.000E+00   0.000E+00   1.000E+00   1.000E+00         -           -           -  
    50           1      0.0000      0.0000    -97.0000   4.700E+00   1.001E-04   0.000E+00   0.000E+00           T           F   0.000E+00   6.000E-01   0.000E+00   1.000E+00   0.000E+00   1.000E+00   1.000E+00         -           -           -  
    51           1      0.0000      0.0000    -96.5000   4.700E+00   1.001E-04   0.000E+00   0.000E+00           T           F   0.000E+00   6.000E-01   0.000E+00   1.000E+00   0.000E+00   1.000E+00   1.000E+00         -           -           -  
    52           1      0.0000      0.0000    -96.0000   4.700E+00   1.001E-04   0.000E+00   0.000E+00           T           F   0.000E+00   6.000E-01   0.000E+00   1.000E+00   0.000E+00   1.000E+00   1.000E+00         -           -           -  
    53           1      0.0000      0.0000    -95.5000   4.700E+00   1.001E-04   0.000E+00   0.000E+00           T           F   0.000E+00   6.000E-01   0.000E+00   1.000E+00   0.000E+00   1.000E+00   1.000E+00         -           -           -  
    54           1      0.0000      0.0000    -95.0000   4.700E+00   1.001E-04   0.000E+00   0.000E+00           T           F   0.000E+00   6.000E-01   0.000E+00   1.000E+00   0.000E+00   1.000E+00   1.000E+00         -           -           -  
    55           1      0.0000      0.0000    -94.5000   4.700E+00   1.001E-04   0.000E+00   0.000E+00           T           F   0.000E+00   6.000E-01   0.000E+00   1.000E+00   0.000E+00   1.000E+00   1.000E+00         -           -           -  
    56           1      0.0000      0.0000    -94.0000   4.700E+00   1.001E-04   0.000E+00   0.000E+00           T           F   0.000E+00   6.000E-01   0.000E+00   1.000E+00   0.000E+00   1.000E+00   1.000E+00         -           -           -  
    57           1      0.0000      0.0000    -93.5000   4.700E+00   1.001E-04   0.000E+00   0.000E+00           T           F   0.000E+00   6.000E-01   0.000E+00   1.000E+00   0.000E+00   1.000E+00   1.000E+00         -           -           -  
    58           1      0.0000      0.0000    -93.0000   4.700E+00   1.001E-04   0.000E+00   0.000E+00           T           F   0.000E+00   6.000E-01   0.000E+00   1.000E+00   0.000E+00   1.000E+00   1.000E+00         -           -           -  
    59           1      0.0000      0.0000    -92.5000   4.700E+00   1.001E-04   0.000E+00   0.000E+00           T           F   0.000E+00   6.000E-01   0.000E+00   1.000E+00   0.000E+00   1.000E+00   1.000E+00         -           -           -  
    60           1      0.0000      0.0000    -92.0000   4.700E+00   1.001E-04   0.000E+00   0.000E+00           T           F   0.000E+00   6.000E-01   0.000E+00   1.000E+00   0.000E+00   1.000E+00   1.000E+00         -           -           -  
    61           1      0.0000      0.0000    -91.5000   4.700E+00   1.001E-04   0.000E+00   0.000E+00           T           F   0.000E+00   6.000E-01   0.000E+00   1.000E+00   0.000E+00   1.000E+00   1.000E+00         -           -           -  
    62           1      0.0000      0.0000    -91.0000   4.700E+00   1.001E-04   0.000E+00   0.000E+00           T           F   0.000E+00   6.000E-01   0.000E+00   1.000E+00   0.000E+00   1.000E+00   1.000E+00         -           -           -  
    63           1      0.0000      0.0000    -90.5000   4.700E+00   1.001E-04   0.000E+00   0.000E+00           T           F   0.000E+00   6.000E-01   0.000E+00   1.000E+00   0.000E+00   1.000E+00   1.000E+00         -           -           -  
    64           1      0.0000      0.0000    -90.0000   4.700E+00   1.001E-04   0.000E+00   0.000E+00           T           F   0.000E+00   6.000E-01   0.000E+00   1.000E+00   0.000E+00   1.000E+00   1.000E+00         -           -           -  
    65           1      0.0000      0.0000    -89.5000   4.700E+00   1.001E-04   0.000E+00   0.000E+00           T           F   0.000E+00   6.000E-01   0.000E+00   1.000E+00   0.000E+00   1.000E+00   1.000E+00         -           -           -  
    66           1      0.0000      0.0000    -89.0000   4.700E+00   1.001E-04   0.000E+00   0.000E+00           T           F   0.000E+00   6.000E-01   0.000E+00   1.000E+00   0.000E+00   1.000E+00   1.000E+00         -           -           -  
    67           1      0.0000      0.0000    -88.5000   4.700E+00   1.001E-04   0.000E+00   0.000E+00           T           F   0.000E+00   6.000E-01   0.000E+00   1.000E+00   0.000E+00   1.000E+00   1.000E+00         -           -           -  
    68           1      0.0000      0.0000    -88.0000   4.700E+00   1.001E-04   0.000E+00   0.000E+00           T           F   0.000E+00   6.000E-01   0.000E+00   1.000E+00   0.000E+00   1.000E+00   1.000E+00         -           -           -  
    69           1      0.0000      0.0000    -87.5000   4.700E+00   1.001E-04   0.000E+00   0.000E+00           T           F   0.000E+00   6.000E-01   0.000E+00   1.000E+00   0.000E+00   1.000E+00   1.000E+00         -           -           -  
    70           1      0.0000      0.0000    -87.0000   4.700E+00   1.001E-04   0.000E+00   0.000E+00           T           F   0.000E+00   6.000E-01   0.000E+00   1.000E+00   0.000E+00   1.000E+00   1.000E+00         -           -           -  
    71           1      0.0000      0.0000    -86.5000   4.700E+00   1.001E-04   0.000E+00   0.000E+00           T           F   0.000E+00   6.000E-01   0.000E+00   1.000E+00   0.000E+00   1.000E+00   1.000E+00         -           -           -  
    72           1      0.0000      0.0000    -86.0000   4.700E+00   1.001E-04   0.000E+00   0.000E+00           T           F   0.000E+00   6.000E-01   0.000E+00   1.000E+00   0.000E+00   1.000E+00   1.000E+00         -           -           -  
    73           1      0.0000      0.0000    -85.5000   4.700E+00   1.001E-04   0.000E+00   0.000E+00           T           F   0.000E+00   6.000E-01   0.000E+00   1.000E+00   0.000E+00   1.000E+00   1.000E+00         -           -           -  
    74           1      0.0000      0.0000    -85.0000   4.700E+00   1.001E-04   0.000E+00   0.000E+00           T           F   0.000E+00   6.000E-01   0.000E+00   1.000E+00   0.000E+00   1.000E+00   1.000E+00         -           -           -  
    75           1      0.0000      0.0000    -84.5000   4.700E+00   1.001E-04   0.000E+00   0.000E+00           T           F   0.000E+00   6.000E-01   0.000E+00   1.000E+00   0.000E+00   1.000E+00   1.000E+00         -           -           -  
    76           1      0.0000      0.0000    -84.0000   4.700E+00   1.001E-04   0.000E+00   0.000E+00           T           F   0.000E+00   6.000E-01   0.000E+00   1.000E+00   0.000E+00   1.000E+00   1.000E+00         -           -           -  
    77           1      0.0000      0.0000    -83.5000   4.700E+00   1.001E-04   0.000E+00   0.000E+00           T           F   0.000E+00   6.000E-01   0.000E+00   1.000E+00   0.000E+00   1.000E+00   1.000E+00         -           -           -  
    78           1      0.0000      0.0000    -83.0000   4.700E+00   1.001E-04   0.000E+00   0.000E+00           T           F   0.000E+00   6.000E-01   0.000E+00   1.000E+00   0.000E+00   1.000E+00   1.000E+00         -           -           -  
    79           1      0.0000      0.0000    -82.5000   4.700E+00   1.001E-04   0.000E+00   0.000E+00           T           F   0.000E+00   6.000E-01   0.000E+00   1.000E+00   0.000E+00   1.000E+00   1.000E+00         -           -           -  
    80           1      0.0000      0.0000    -82.0000   4.700E+00   1.001E-04   0.000E+00   0.000E+00           T           F   0.000E+00   6.000E-01   0.000E+00   1.000E+00   0.000E+00   1.000E+00   1.000E+00         -           -           -  
    81           1      0.0000      0.0000    -81.5000   4.700E+00   1.001E-04   0.000E+00   0.000E+00           T           F   0.000E+00   6.000E-01   0.000E+00   1.000E+00   0.000E+00   1.000E+00   1.000E+00         -           -           -  
    82           1      0.0000      0.0000    -81.0000   4.700E+00   1.001E-04   0.000E+00   0.000E+00           T           F   0.000E+00   6.000E-01   0.000E+00   1.000E+00   0.000E+00   1.000E+00   1.000E+00         -           -           -  
    83           1      0.0000      0.0000    -80.5000   4.700E+00   1.001E-04   0.000E+00   0.000E+00           T           F   0.000E+00   6.000E-01   0.000E+00   1.000E+00   0.000E+00   1.000E+00   1.000E+00         -           -           -  
    84           1      0.0000      0.0000    -80.0000   4.700E+00   1.001E-04   0.000E+00   0.000E+00           T           F   0.000E+00   6.000E-01   0.000E+00   1.000E+00   0.000E+00   1.000E+00   1.000E+00         -           -           -  
    85           1      0.0000      0.0000    -79.5000   4.700E+00   1.001E-04   0.000E+00   0.000E+00           T           F   0.000E+00   6.000E-01   0.000E+00   1.000E+00   0.000E+00   1.000E+00   1.000E+00         -           -           -  
    86           1      0.0000      0.0000    -79.0000   4.700E+00   1.001E-04   0.000E+00   0.000E+00           T           F   0.000E+00   6.000E-01   0.000E+00   1.000E+00   0.000E+00   1.000E+00   1.000E+00         -           -           -  
    87           1      0.0000      0.0000    -78.5000   4.700E+00   1.001E-04   0.000E+00   0.000E+00           T           F   0.000E+00   6.000E-01   0.000E+00   1.000E+00   0.000E+00   1.000E+00   1.000E+00         -           -           -  
    88           1      0.0000      0.0000    -78.0000   4.700E+00   1.001E-04   0.000E+00   0.000E+00           T           F   0.000E+00   6.000E-01   0.000E+00   1.000E+00   0.000E+00   1.000E+00   1.000E+00         -           -           -  
    89           1      0.0000      0.0000    -77.5000   4.700E+00   1.001E-04   0.000E+00   0.000E+00           T           F   0.000E+00   6.000E-01   0.000E+00   1.000E+00   0.000E+00   1.000E+00   1.000E+00         -           -           -  
    90           1      0.0000      0.0000    -77.0000   4.700E+00   1.001E-04   0.000E+00   0.000E+00           T           F   0.000E+00   6.000E-01   0.000E+00   1.000E+00   0.000E+00   1.000E+00   1.000E+00         -           -           -  
    91           1      0.0000      0.0000    -76.5000   4.700E+00   1.001E-04   0.000E+00   0.000E+00           T           F   0.000E+00   6.000E-01   0.000E+00   1.000E+00   0.000E+00   1.000E+00   1.000E+00         -           -           -  
    92           1      0.0000      0.0000    -76.0000   4.700E+00   1.001E-04   0.000E+00   0.000E+00           T           F   0.000E+00   6.000E-01   0.000E+00   1.000E+00   0.000E+00   1.000E+00   1.000E+00         -           -           -  
    93           1      0.0000      0.0000    -75.5000   4.700E+00   1.001E-04   0.000E+00   0.000E+00           T           F   0.000E+00   6.000E-01   0.000E+00   1.000E+00   0.000E+00   1.000E+00   1.000E+00         -           -           -  
    94           1      0.0000      0.0000    -75.0000   4.700E+00   1.001E-04   0.000E+00   0.000E+00           T           F   0.000E+00   6.000E-01   0.000E+00   1.000E+00   0.000E+00   1.000E+00   1.000E+00         -           -           -  
    95           1      0.0000      0.0000    -74.5000   4.700E+00   1.001E-04   0.000E+00   0.000E+00           T           F   0.000E+00   6.000E-01   0.000E+00   1.000E+00   0.000E+00   1.000E+00   1.000E+00         -           -           -  
    96           1      0.0000      0.0000    -74.0000   4.700E+00   1.001E-04   0.000E+00   0.000E+00           T           F   0.000E+00   6.000E-01   0.000E+00   1.000E+00   0.000E+00   1.000E+00   1.000E+00         -           -           -  
    97           1      0.0000      0.0000    -73.5000   4.700E+00   1.001E-04   0.000E+00   0.000E+00           T           F   0.000E+00   6.000E-01   0.000E+00   1.000E+00   0.000E+00   1.000E+00   1.000E+00         -           -           -  
    98           1      0.0000      0.0000    -73.0000   4.700E+00   1.001E-04   0.000E+00   0.000E+00           T           F   0.000E+00   6.000E-01   0.000E+00   1.000E+00   0.000E+00   1.000E+00   1.000E+00         -           -           -  
    99           1      0.0000      0.0000    -72.5000   4.700E+00   1.001E-04   0.000E+00   0.000E+00           T           F   0.000E+00   6.000E-01   0.000E+00   1.000E+00   0.000E+00   1.000E+00   1.000E+00         -           -           -  
   100           1      0.0000      0.0000    -72.0000   4.700E+00   1.001E-04   0.000E+00   0.000E+00           T           F   0.000E+00   6.000E-01   0.000E+00   1.000E+00   0.000E+00   1.000E+00   1.000E+00         -           -           -  
   101           1      0.0000      0.0000    -71.5000   4.700E+00   1.001E-04   0.000E+00   0.000E+00           T           F   0.000E+00   6.000E-01   0.000E+00   1.000E+00   0.000E+00   1.000E+00   1.000E+00         -           -           -  
   102           1      0.0000      0.0000    -71.0000   4.700E+00   1.001E-04   0.000E+00   0.000E+00           T           F   0.000E+00   6.000E-01   0.000E+00   1.000E+00   0.000E+00   1.000E+00   1.000E+00         -           -           -  
   103           1      0.0000      0.0000    -70.5000   4.700E+00   1.001E-04   0.000E+00   0.000E+00           T           F   0.000E+00   6.000E-01   0.000E+00   1.000E+00   0.000E+00   1.000E+00   1.000E+00         -           -           -  
   104           1      0.0000      0.0000    -70.0000   4.700E+00   1.001E-04   0.000E+00   0.000E+00           T           F   0.000E+00   6.000E-01   0.000E+00   1.000E+00   0.000E+00   1.000E+00   1.000E+00         -           -           -  
   105           1      0.0000      0.0000    -69.5000   4.700E+00   1.001E-04   0.000E+00   0.000E+00           T           F   0.000E+00   6.000E-01   0.000E+00   1.000E+00   0.000E+00   1.000E+00   1.000E+00         -           -           -  
   106           1      0.0000      0.0000    -69.0000   4.700E+00   1.001E-04   0.000E+00   0.000E+00           T           F   0.000E+00   6.000E-01   0.000E+00   1.000E+00   0.000E+00   1.000E+00   1.000E+00         -           -           -  
   107           1      0.0000      0.0000    -68.5000   4.700E+00   1.001E-04   0.000E+00   0.000E+00           T           F   0.000E+00   6.000E-01   0.000E+00   1.000E+00   0.000E+00   1.000E+00   1.000E+00         -           -           -  
   108           1      0.0000      0.0000    -68.0000   4.700E+00   1.001E-04   0.000E+00   0.000E+00           T           F   0.000E+00   6.000E-01   0.000E+00   1.000E+00   0.000E+00   1.000E+00   1.000E+00         -           -           -  
   109           1      0.0000      0.0000    -67.5000   4.700E+00   1.001E-04   0.000E+00   0.000E+00           T           F   0.000E+00   6.000E-01   0.000E+00   1.000E+00   0.000E+00   1.000E+00   1.000E+00         -           -           -  
   110           1      0.0000      0.0000    -67.0000   4.700E+00   1.001E-04   0.000E+00   0.000E+00           T           F   0.000E+00   6.000E-01   0.000E+00   1.000E+00   0.000E+00   1.000E+00   1.000E+00         -           -           -  
   111           1      0.0000      0.0000    -66.5000   4.700E+00   1.001E-04   0.000E+00   0.000E+00           T           F   0.000E+00   6.000E-01   0.000E+00   1.000E+00   0.000E+00   1.000E+00   1.000E+00         -           -           -  
   112           1      0.0000      0.0000    -66.0000   4.700E+00   1.001E-04   0.000E+00   0.000E+00           T           F   0.000E+00   6.000E-01   0.000E+00   1.000E+00   0.000E+00   1.000E+00   1.000E+00         -           -           -  
   113           1      0.0000      0.0000    -65.5000   4.700E+00   1.001E-04   0.000E+00   0.000E+00           T           F   0.000E+00   6.000E-01   0.000E+00   1.000E+00   0.000E+00   1.000E+00   1.000E+00         -           -           -  
   114           1      0.0000      0.0000    -65.0000   4.700E+00   1.001E-04   0.000E+00   0.000E+00           T           F   0.000E+00   6.000E-01   0.000E+00   1.000E+00   0.000E+00   1.000E+00   1.000E+00         -           -           -  
   115           1      0.0000      0.0000    -64.5000   4.700E+00   1.001E-04   0.000E+00   0.000E+00           T           F   0.000E+00   6.000E-01   0.000E+00   1.000E+00   0.000E+00   1.000E+00   1.000E+00         -           -           -  
   116           1      0.0000      0.0000    -64.0000   4.700E+00   1.001E-04   0.000E+00   0.000E+00           T           F   0.000E+00   6.000E-01   0.000E+00   1.000E+00   0.000E+00   1.000E+00   1.000E+00         -           -           -  
   117           1      0.0000      0.0000    -63.5000   4.700E+00   1.001E-04   0.000E+00   0.000E+00           T           F   0.000E+00   6.000E-01   0.000E+00   1.000E+00   0.000E+00   1.000E+00   1.000E+00         -           -           -  
   118           1      0.0000      0.0000    -63.0000   4.700E+00   1.001E-04   0.000E+00   0.000E+00           T           F   0.000E+00   6.000E-01   0.000E+00   1.000E+00   0.000E+00   1.000E+00   1.000E+00         -           -           -  
   119           1      0.0000      0.0000    -62.5000   4.700E+00   1.001E-04   0.000E+00   0.000E+00           T           F   0.000E+00   6.000E-01   0.000E+00   1.000E+00   0.000E+00   1.000E+00   1.000E+00         -           -           -  
   120           1      0.0000      0.0000    -62.0000   4.700E+00   1.001E-04   0.000E+00   0.000E+00           T           F   0.000E+00   6.000E-01   0.000E+00   1.000E+00   0.000E+00   1.000E+00   1.000E+00         -           -           -  
   121           1      0.0000      0.0000    -61.5000   4.700E+00   1.001E-04   0.000E+00   0.000E+00           T           F   0.000E+00   6.000E-01   0.000E+00   1.000E+00   0.000E+00   1.000E+00   1.000E+00         -           -           -  
   122           1      0.0000      0.0000    -61.0000   4.700E+00   1.001E-04   0.000E+00   0.000E+00           T           F   0.000E+00   6.000E-01   0.000E+00   1.000E+00   0.000E+00   1.000E+00   1.000E+00         -           -           -  
   123           1      0.0000      0.0000    -60.5000   4.700E+00   1.001E-04   0.000E+00   0.000E+00           T           F   0.000E+00   6.000E-01   0.000E+00   1.000E+00   0.000E+00   1.000E+00   1.000E+00         -           -           -  
   124           1      0.0000      0.0000    -60.0000   4.700E+00   1.001E-04   0.000E+00   0.000E+00           T           F   0.000E+00   6.000E-01   0.000E+00   1.000E+00   0.000E+00   1.000E+00   1.000E+00         -           -           -  
   125           1      0.0000      0.0000    -59.5000   4.700E+00   1.001E-04   0.000E+00   0.000E+00           T           F   0.000E+00   6.000E-01   0.000E+00   1.000E+00   0.000E+00   1.000E+00   1.000E+00         -           -           -  
   126           1      0.0000      0.0000    -59.0000   4.700E+00   1.001E-04   0.000E+00   0.000E+00           T           F   0.000E+00   6.000E-01   0.000E+00   1.000E+00   0.000E+00   1.000E+00   1.000E+00         -           -           -  
   127           1      0.0000      0.0000    -58.5000   4.700E+00   1.001E-04   0.000E+00   0.000E+00           T           F   0.000E+00   6.000E-01   0.000E+00   1.000E+00   0.000E+00   1.000E+00   1.000E+00         -           -           -  
   128           1      0.0000      0.0000    -58.0000   4.700E+00   1.001E-04   0.000E+00   0.000E+00           T           F   0.000E+00   6.000E-01   0.000E+00   1.000E+00   0.000E+00   1.000E+00   1.000E+00         -           -           -  
   129           1      0.0000      0.0000    -57.5000   4.700E+00   1.001E-04   0.000E+00   0.000E+00           T           F   0.000E+00   6.000E-01   0.000E+00   1.000E+00   0.000E+00   1.000E+00   1.000E+00         -           -           -  
   130           1      0.0000      0.0000    -57.0000   4.700E+00   1.001E-04   0.000E+00   0.000E+00           T           F   0.000E+00   6.000E-01   0.000E+00   1.000E+00   0.000E+00   1.000E+00   1.000E+00         -           -           -  
   131           1      0.0000      0.0000    -56.5000   4.700E+00   1.001E-04   0.000E+00   0.000E+00           T           F   0.000E+00   6.000E-01   0.000E+00   1.000E+00   0.000E+00   1.000E+00   1.000E+00         -           -           -  
   132           1      0.0000      0.0000    -56.0000   4.700E+00   1.001E-04   0.000E+00   0.000E+00           T           F   0.000E+00   6.000E-01   0.000E+00   1.000E+00   0.000E+00   1.000E+00   1.000E+00         -           -           -  
   133           1      0.0000      0.0000    -55.5000   4.700E+00   1.001E-04   0.000E+00   0.000E+00           T           F   0.000E+00   6.000E-01   0.000E+00   1.000E+00   0.000E+00   1.000E+00   1.000E+00         -           -           -  
   134           1      0.0000      0.0000    -55.0000   4.700E+00   1.001E-04   0.000E+00   0.000E+00           T           F   0.000E+00   6.000E-01   0.000E+00   1.000E+00   0.000E+00   1.000E+00   1.000E+00         -           -           -  
   135           1      0.0000      0.0000    -54.5000   4.700E+00   1.001E-04   0.000E+00   0.000E+00           T           F   0.000E+00   6.000E-01   0.000E+00   1.000E+00   0.000E+00   1.000E+00   1.000E+00         -           -           -  
   136           1      0.0000      0.0000    -54.0000   4.700E+00   1.001E-04   0.000E+00   0.000E+00           T           F   0.000E+00   6.000E-01   0.000E+00   1.000E+00   0.000E+00   1.000E+00   1.000E+00         -           -           -  
   137           1      0.0000      0.0000    -53.5000   4.700E+00   1.001E-04   0.000E+00   0.000E+00           T           F   0.000E+00   6.000E-01   0.000E+00   1.000E+00   0.000E+00   1.000E+00   1.000E+00         -           -           -  
   138           1      0.0000      0.0000    -53.0000   4.700E+00   1.001E-04   0.000E+00   0.000E+00           T           F   0.000E+00   6.000E-01   0.000E+00   1.000E+00   0.000E+00   1.000E+00   1.000E+00         -           -           -  
   139           1      0.0000      0.0000    -52.5000   4.700E+00   1.001E-04   0.000E+00   0.000E+00           T           F   0.000E+00   6.000E-01   0.000E+00   1.000E+00   0.000E+00   1.000E+00   1.000E+00         -           -           -  
   140           1      0.0000      0.0000    -52.0000   4.700E+00   1.001E-04   0.000E+00   0.000E+00           T           F   0.000E+00   6.000E-01   0.000E+00   1.000E+00   0.000E+00   1.000E+00   1.000E+00         -           -           -  
   141           1      0.0000      0.0000    -51.5000   4.700E+00   1.001E-04   0.000E+00   0.000E+00           T           F   0.000E+00   6.000E-01   0.000E+00   1.000E+00   0.000E+00   1.000E+00   1.000E+00         -           -           -  
   142           1      0.0000      0.0000    -51.0000   4.700E+00   1.001E-04   0.000E+00   0.000E+00           T           F   0.000E+00   6.000E-01   0.000E+00   1.000E+00   0.000E+00   1.000E+00   1.000E+00         -           -           -  
   143           1      0.0000      0.0000    -50.5000   4.700E+00   1.001E-04   0.000E+00   0.000E+00           T           F   0.000E+00   6.000E-01   0.000E+00   1.000E+00   0.000E+00   1.000E+00   1.000E+00         -           -           -  
   144           1      0.0000      0.0000    -50.0000   4.700E+00   1.001E-04   0.000E+00   0.000E+00           T           F   0.000E+00   6.000E-01   0.000E+00   1.000E+00   0.000E+00   1.000E+00   1.000E+00         -           -           -  
   145           1      0.0000      0.0000    -49.5000   4.700E+00   1.001E-04   0.000E+00   0.000E+00           T           F   0.000E+00   6.000E-01   0.000E+00   1.000E+00   0.000E+00   1.000E+00   1.000E+00         -           -           -  
   146           1      0.0000      0.0000    -49.0000   4.700E+00   1.001E-04   0.000E+00   0.000E+00           T           F   0.000E+00   6.000E-01   0.000E+00   1.000E+00   0.000E+00   1.000E+00   1.000E+00         -           -           -  
   147           1      0.0000      0.0000    -48.5000   4.700E+00   1.001E-04   0.000E+00   0.000E+00           T           F   0.000E+00   6.000E-01   0.000E+00   1.000E+00   0.000E+00   1.000E+00   1.000E+00         -           -           -  
   148           1      0.0000      0.0000    -48.0000   4.700E+00   1.001E-04   0.000E+00   0.000E+00           T           F   0.000E+00   6.000E-01   0.000E+00   1.000E+00   0.000E+00   1.000E+00   1.000E+00         -           -           -  
   149           1      0.0000      0.0000    -47.5000   4.700E+00   1.001E-04   0.000E+00   0.000E+00           T           F   0.000E+00   6.000E-01   0.000E+00   1.000E+00   0.000E+00   1.000E+00   1.000E+00         -           -           -  
   150           1      0.0000      0.0000    -47.0000   4.700E+00   1.001E-04   0.000E+00   0.000E+00           T           F   0.000E+00   6.000E-01   0.000E+00   1.000E+00   0.000E+00   1.000E+00   1.000E+00         -           -           -  
   151           1      0.0000      0.0000    -46.5000   4.700E+00   1.001E-04   0.000E+00   0.000E+00           T           F   0.000E+00   6.000E-01   0.000E+00   1.000E+00   0.000E+00   1.000E+00   1.000E+00         -           -           -  
   152           1      0.0000      0.0000    -46.0000   4.700E+00   1.001E-04   0.000E+00   0.000E+00           T           F   0.000E+00   6.000E-01   0.000E+00   1.000E+00   0.000E+00   1.000E+00   1.000E+00         -           -           -  
   153           1      0.0000      0.0000    -45.5000   4.700E+00   1.001E-04   0.000E+00   0.000E+00           T           F   0.000E+00   6.000E-01   0.000E+00   1.000E+00   0.000E+00   1.000E+00   1.000E+00         -           -           -  
   154           1      0.0000      0.0000    -45.0000   4.700E+00   1.001E-04   0.000E+00   0.000E+00           T           F   0.000E+00   6.000E-01   0.000E+00   1.000E+00   0.000E+00   1.000E+00   1.000E+00         -           -           -  
   155           1      0.0000      0.0000    -44.5000   4.700E+00   1.001E-04   0.000E+00   0.000E+00           T           F   0.000E+00   6.000E-01   0.000E+00   1.000E+00   0.000E+00   1.000E+00   1.000E+00         -           -           -  
   156           1      0.0000      0.0000    -44.0000   4.700E+00   1.001E-04   0.000E+00   0.000E+00           T           F   0.000E+00   6.000E-01   0.000E+00   1.000E+00   0.000E+00   1.000E+00   1.000E+00         -           -           -  
   157           1      0.0000      0.0000    -43.5000   4.700E+00   1.001E-04   0.000E+00   0.000E+00           T           F   0.000E+00   6.000E-01   0.000E+00   1.000E+00   0.000E+00   1.000E+00   1.000E+00         -           -           -  
   158           1      0.0000      0.0000    -43.0000   4.700E+00   1.001E-04   0.000E+00   0.000E+00           T           F   0.000E+00   6.000E-01   0.000E+00   1.000E+00   0.000E+00   1.000E+00   1.000E+00         -           -           -  
   159           1      0.0000      0.0000    -42.5000   4.700E+00   1.001E-04   0.000E+00   0.000E+00           T           F   0.000E+00   6.000E-01   0.000E+00   1.000E+00   0.000E+00   1.000E+00   1.000E+00         -           -           -  
   160           1      0.0000      0.0000    -42.0000   4.700E+00   1.001E-04   0.000E+00   0.000E+00           T           F   0.000E+00   6.000E-01   0.000E+00   1.000E+00   0.000E+00   1.000E+00   1.000E+00         -           -           -  
   161           1      0.0000      0.0000    -41.5000   4.700E+00   1.001E-04   0.000E+00   0.000E+00           T           F   0.000E+00   6.000E-01   0.000E+00   1.000E+00   0.000E+00   1.000E+00   1.000E+00         -           -           -  
   162           1      0.0000      0.0000    -41.0000   4.700E+00   1.001E-04   0.000E+00   0.000E+00           T           F   0.000E+00   6.000E-01   0.000E+00   1.000E+00   0.000E+00   1.000E+00   1.000E+00         -           -           -  
   163           1      0.0000      0.0000    -40.5000   4.700E+00   1.001E-04   0.000E+00   0.000E+00           T           F   0.000E+00   6.000E-01   0.000E+00   1.000E+00   0.000E+00   1.000E+00   1.000E+00         -           -           -  
   164           1      0.0000      0.0000    -40.0000   4.700E+00   1.001E-04   0.000E+00   0.000E+00           T           F   0.000E+00   6.000E-01   0.000E+00   1.000E+00   0.000E+00   1.000E+00   1.000E+00         -           -           -  
   165           1      0.0000      0.0000    -39.5000   4.700E+00   1.001E-04   0.000E+00   0.000E+00           T           F   0.000E+00   6.000E-01   0.000E+00   1.000E+00   0.000E+00   1.000E+00   1.000E+00         -           -           -  
   166           1      0.0000      0.0000    -39.0000   4.700E+00   1.001E-04   0.000E+00   0.000E+00           T           F   0.000E+00   6.000E-01   0.000E+00   1.000E+00   0.000E+00   1.000E+00   1.000E+00         -           -           -  
   167           1      0.0000      0.0000    -38.5000   4.700E+00   1.001E-04   0.000E+00   0.000E+00           T           F   0.000E+00   6.000E-01   0.000E+00   1.000E+00   0.000E+00   1.000E+00   1.000E+00         -           -           -  
   168           1      0.0000      0.0000    -38.0000   4.700E+00   1.001E-04   0.000E+00   0.000E+00           T           F   0.000E+00   6.000E-01   0.000E+00   1.000E+00   0.000E+00   1.000E+00   1.000E+00         -           -           -  
   169           1      0.0000      0.0000    -37.5000   4.700E+00   1.001E-04   0.000E+00   0.000E+00           T           F   0.000E+00   6.000E-01   0.000E+00   1.000E+00   0.000E+00   1.000E+00   1.000E+00         -           -           -  
   170           1      0.0000      0.0000    -37.0000   4.700E+00   1.001E-04   0.000E+00   0.000E+00           T           F   0.000E+00   6.000E-01   0.000E+00   1.000E+00   0.000E+00   1.000E+00   1.000E+00         -           -           -  
   171           1      0.0000      0.0000    -36.5000   4.700E+00   1.001E-04   0.000E+00   0.000E+00           T           F   0.000E+00   6.000E-01   0.000E+00   1.000E+00   0.000E+00   1.000E+00   1.000E+00         -           -           -  
   172           1      0.0000      0.0000    -36.0000   4.700E+00   1.001E-04   0.000E+00   0.000E+00           T           F   0.000E+00   6.000E-01   0.000E+00   1.000E+00   0.000E+00   1.000E+00   1.000E+00         -           -           -  
   173           1      0.0000      0.0000    -35.5000   4.700E+00   1.001E-04   0.000E+00   0.000E+00           T           F   0.000E+00   6.000E-01   0.000E+00   1.000E+00   0.000E+00   1.000E+00   1.000E+00         -           -           -  
   174           1      0.0000      0.0000    -35.0000   4.700E+00   1.001E-04   0.000E+00   0.000E+00           T           F   0.000E+00   6.000E-01   0.000E+00   1.000E+00   0.000E+00   1.000E+00   1.000E+00         -           -           -  
   175           1      0.0000      0.0000    -34.5000   4.700E+00   1.001E-04   0.000E+00   0.000E+00           T           F   0.000E+00   6.000E-01   0.000E+00   1.000E+00   0.000E+00   1.000E+00   1.000E+00         -           -           -  
   176           1      0.0000      0.0000    -34.0000   4.700E+00   1.001E-04   0.000E+00   0.000E+00           T           F   0.000E+00   6.000E-01   0.000E+00   1.000E+00   0.000E+00   1.000E+00   1.000E+00         -           -           -  
   177           1      0.0000      0.0000    -33.5000   4.700E+00   1.001E-04   0.000E+00   0.000E+00           T           F   0.000E+00   6.000E-01   0.000E+00   1.000E+00   0.000E+00   1.000E+00   1.000E+00         -           -           -  
   178           1      0.0000      0.0000    -33.0000   4.700E+00   1.001E-04   0.000E+00   0.000E+00           T           F   0.000E+00   6.000E-01   0.000E+00   1.000E+00   0.000E+00   1.000E+00   1.000E+00         -           -           -  
   179           1      0.0000      0.0000    -32.5000   4.700E+00   1.001E-04   0.000E+00   0.000E+00           T           F   0.000E+00   6.000E-01   0.000E+00   1.000E+00   0.000E+00   1.000E+00   1.000E+00         -           -           -  
   180           1      0.0000      0.0000    -32.0000   4.700E+00   1.001E-04   0.000E+00   0.000E+00           T           F   0.000E+00   6.000E-01   0.000E+00   1.000E+00   0.000E+00   1.000E+00   1.000E+00         -           -           -  
   181           1      0.0000      0.0000    -31.5000   4.700E+00   1.001E-04   0.000E+00   0.000E+00           T           F   0.000E+00   6.000E-01   0.000E+00   1.000E+00   0.000E+00   1.000E+00   1.000E+00         -           -           -  
   182           1      0.0000      0.0000    -31.0000   4.700E+00   1.001E-04   0.000E+00   0.000E+00           T           F   0.000E+00   6.000E-01   0.000E+00   1.000E+00   0.000E+00   1.000E+00   1.000E+00         -           -           -  
   183           1      0.0000      0.0000    -30.5000   4.700E+00   1.001E-04   0.000E+00   0.000E+00           T           F   0.000E+00   6.000E-01   0.000E+00   1.000E+00   0.000E+00   1.000E+00   1.000E+00         -           -           -  
   184           1      0.0000      0.0000    -30.0000   4.700E+00   1.001E-04   0.000E+00   0.000E+00           T           F   0.000E+00   6.000E-01   0.000E+00   1.000E+00   0.000E+00   1.000E+00   1.000E+00         -           -           -  
   185           1      0.0000      0.0000    -29.5000   4.700E+00   1.001E-04   0.000E+00   0.000E+00           T           F   0.000E+00   6.000E-01   0.000E+00   1.000E+00   0.000E+00   1.000E+00   1.000E+00         -           -           -  
   186           1      0.0000      0.0000    -29.0000   4.700E+00   1.001E-04   0.000E+00   0.000E+00           T           F   0.000E+00   6.000E-01   0.000E+00   1.000E+00   0.000E+00   1.000E+00   1.000E+00         -           -           -  
   187           1      0.0000      0.0000    -28.5000   4.700E+00   1.001E-04   0.000E+00   0.000E+00           T           F   0.000E+00   6.000E-01   0.000E+00   1.000E+00   0.000E+00   1.000E+00   1.000E+00         -           -           -  
   188           1      0.0000      0.0000    -28.0000   4.700E+00   1.001E-04   0.000E+00   0.000E+00           T           F   0.000E+00   6.000E-01   0.000E+00   1.000E+00   0.000E+00   1.000E+00   1.000E+00         -           -           -  
   189           1      0.0000      0.0000    -27.5000   4.700E+00   1.001E-04   0.000E+00   0.000E+00           T           F   0.000E+00   6.000E-01   0.000E+00   1.000E+00   0.000E+00   1.000E+00   1.000E+00         -           -           -  
   190           1      0.0000      0.0000    -27.0000   4.700E+00   1.001E-04   0.000E+00   0.000E+00           T           F   0.000E+00   6.000E-01   0.000E+00   1.000E+00   0.000E+00   1.000E+00   1.000E+00         -           -           -  
   191           1      0.0000      0.0000    -26.5000   4.700E+00   1.001E-04   0.000E+00   0.000E+00           T           F   0.000E+00   6.000E-01   0.000E+00   1.000E+00   0.000E+00   1.000E+00   1.000E+00         -           -           -  
   192           1      0.0000      0.0000    -26.0000   4.700E+00   1.001E-04   0.000E+00   0.000E+00           T           F   0.000E+00   6.000E-01   0.000E+00   1.000E+00   0.000E+00   1.000E+00   1.000E+00         -           -           -  
   193           1      0.0000      0.0000    -25.5000   4.700E+00   1.001E-04   0.000E+00   0.000E+00           T           F   0.000E+00   6.000E-01   0.000E+00   1.000E+00   0.000E+00   1.000E+00   1.000E+00         -           -           -  
   194           1      0.0000      0.0000    -25.0000   4.700E+00   1.001E-04   0.000E+00   0.000E+00           T           F   0.000E+00   6.000E-01   0.000E+00   1.000E+00   0.000E+00   1.000E+00   1.000E+00         -           -           -  
   195           1      0.0000      0.0000    -24.5000   4.700E+00   1.001E-04   0.000E+00   0.000E+00           T           F   0.000E+00   6.000E-01   0.000E+00   1.000E+00   0.000E+00   1.000E+00   1.000E+00         -           -           -  
   196           1      0.0000      0.0000    -24.0000   4.700E+00   1.001E-04   0.000E+00   0.000E+00           T           F   0.000E+00   6.000E-01   0.000E+00   1.000E+00   0.000E+00   1.000E+00   1.000E+00         -           -           -  
   197           1      0.0000      0.0000    -23.5000   4.700E+00   1.001E-04   0.000E+00   0.000E+00           T           F   0.000E+00   6.000E-01   0.000E+00   1.000E+00   0.000E+00   1.000E+00   1.000E+00         -           -           -  
   198           1      0.0000      0.0000    -23.0000   4.700E+00   1.001E-04   0.000E+00   0.000E+00           T           F   0.000E+00   6.000E-01   0.000E+00   1.000E+00   0.000E+00   1.000E+00   1.000E+00         -           -           -  
   199           1      0.0000      0.0000    -22.5000   4.700E+00   1.001E-04   0.000E+00   0.000E+00           T           F   0.000E+00   6.000E-01   0.000E+00   1.000E+00   0.000E+00   1.000E+00   1.000E+00         -           -           -  
   200           1      0.0000      0.0000    -22.0000   4.700E+00   1.001E-04   0.000E+00   0.000E+00           T           F   0.000E+00   6.000E-01   0.000E+00   1.000E+00   0.000E+00   1.000E+00   1.000E+00         -           -           -  
   201           1      0.0000      0.0000    -21.5000   4.700E+00   1.001E-04   0.000E+00   0.000E+00           T           F   0.000E+00   6.000E-01   0.000E+00   1.000E+00   0.000E+00   1.000E+00   1.000E+00         -           -           -  
   202           1      0.0000      0.0000    -21.0000   4.700E+00   1.001E-04   0.000E+00   0.000E+00           T           F   0.000E+00   6.000E-01   0.000E+00   1.000E+00   0.000E+00   1.000E+00   1.000E+00         -           -           -  
   203           1      0.0000      0.0000    -20.5000   4.700E+00   1.001E-04   0.000E+00   0.000E+00           T           F   0.000E+00   6.000E-01   0.000E+00   1.000E+00   0.000E+00   1.000E+00   1.000E+00         -           -           -  
   204           1      0.0000      0.0000    -20.0000   4.700E+00   1.001E-04   0.000E+00   0.000E+00           T           F   0.000E+00   6.000E-01   0.000E+00   1.000E+00   0.000E+00   1.000E+00   1.000E+00         -           -           -  
   205           1      0.0000      0.0000    -19.5000   4.700E+00   1.001E-04   0.000E+00   0.000E+00           T           F   0.000E+00   6.000E-01   0.000E+00   1.000E+00   0.000E+00   1.000E+00   1.000E+00         -           -           -  
   206           1      0.0000      0.0000    -19.0000   4.700E+00   1.001E-04   0.000E+00   0.000E+00           T           F   0.000E+00   6.000E-01   0.000E+00   1.000E+00   0.000E+00   1.000E+00   1.000E+00         -           -           -  
   207           1      0.0000      0.0000    -18.5000   4.700E+00   1.001E-04   0.000E+00   0.000E+00           T           F   0.000E+00   6.000E-01   0.000E+00   1.000E+00   0.000E+00   1.000E+00   1.000E+00         -           -           -  
   208           1      0.0000      0.0000    -18.0000   4.700E+00   1.001E-04   0.000E+00   0.000E+00           T           F   0.000E+00   6.000E-01   0.000E+00   1.000E+00   0.000E+00   1.000E+00   1.000E+00         -           -           -  
   209           1      0.0000      0.0000    -17.5000   4.700E+00   1.001E-04   0.000E+00   0.000E+00           T           F   0.000E+00   6.000E-01   0.000E+00   1.000E+00   0.000E+00   1.000E+00   1.000E+00         -           -           -  
   210           1      0.0000      0.0000    -17.0000   4.700E+00   1.001E-04   0.000E+00   0.000E+00           T           F   0.000E+00   6.000E-01   0.000E+00   1.000E+00   0.000E+00   1.000E+00   1.000E+00         -           -           -  
   211           1      0.0000      0.0000    -16.5000   4.700E+00   1.001E-04   0.000E+00   0.000E+00           T           F   0.000E+00   6.000E-01   0.000E+00   1.000E+00   0.000E+00   1.000E+00   1.000E+00         -           -           -  
   212           1      0.0000      0.0000    -16.0000   4.700E+00   1.001E-04   0.000E+00   0.000E+00           T           F   0.000E+00   6.000E-01   0.000E+00   1.000E+00   0.000E+00   1.000E+00   1.000E+00         -           -           -  
   213           1      0.0000      0.0000    -15.5000   4.700E+00   1.001E-04   0.000E+00   0.000E+00           T           F   0.000E+00   6.000E-01   0.000E+00   1.000E+00   0.000E+00   1.000E+00   1.000E+00         -           -           -  
   214           1      0.0000      0.0000    -15.0000   4.700E+00   1.001E-04   0.000E+00   0.000E+00           T           F   0.000E+00   6.000E-01   0.000E+00   1.000E+00   0.000E+00   1.000E+00   1.000E+00         -           -           -  
   215           1      0.0000      0.0000    -14.5000   4.700E+00   1.001E-04   0.000E+00   0.000E+00           T           F   0.000E+00   6.000E-01   0.000E+00   1.000E+00   0.000E+00   1.000E+00   1.000E+00         -           -           -  
   216           1      0.0000      0.0000    -14.0000   4.700E+00   1.001E-04   0.000E+00   0.000E+00           T           F   0.000E+00   6.000E-01   0.000E+00   1.000E+00   0.000E+00   1.000E+00   1.000E+00         -           -           -  
   217           1      0.0000      0.0000    -13.5000   4.700E+00   1.001E-04   0.000E+00   0.000E+00           T           F   0.000E+00   6.000E-01   0.000E+00   1.000E+00   0.000E+00   1.000E+00   1.000E+00         -           -           -  
   218           1      0.0000      0.0000    -13.0000   4.700E+00   1.001E-04   0.000E+00   0.000E+00           T           F   0.000E+00   6.000E-01   0.000E+00   1.000E+00   0.000E+00   1.000E+00   1.000E+00         -           -           -  
   219           1      0.0000      0.0000    -12.5000   4.700E+00   1.001E-04   0.000E+00   0.000E+00           T           F   0.000E+00   6.000E-01   0.000E+00   1.000E+00   0.000E+00   1.000E+00   1.000E+00         -           -           -  
   220           2      0.0000      0.0000    -11.5000   4.609E+00   1.001E-04   0.000E+00   0.000E+00           T           F   0.000E+00   6.000E-01   0.000E+00   1.000E+00   0.000E+00   1.000E+00   1.000E+00         -           -           -  
   221           2      0.0000      0.0000    -11.0000   4.519E+00   9.966E-05   0.000E+00   0.000E+00           T           F   0.000E+00   6.000E-01   0.000E+00   1.000E+00   0.000E+00   1.000E+00   1.000E+00         -           -           -  
   222           2      0.0000      0.0000    -10.5000   4.428E+00   1.001E-04   0.000E+00   0.000E+00           T           F   0.000E+00   6.000E-01   0.000E+00   1.000E+00   0.000E+00   1.000E+00   1.000E+00         -           -           -  
   223           2      0.0000      0.0000    -10.0000   4.337E+00   1.001E-04   0.000E+00   0.000E+00           T           F   0.000E+00   6.000E-01   0.000E+00   1.000E+00   0.000E+00   1.000E+00   1.000E+00         -           -           -  
   224           2      0.0000      0.0000     -9.5000   4.247E+00   1.001E-04   0.000E+00   0.000E+00           T           F   0.000E+00   6.000E-01   0.000E+00   1.000E+00   0.000E+00   1.000E+00   1.000E+00         -           -           -  
   225           2      0.0000      0.0000     -9.0000   4.156E+00   1.001E-04   0.000E+00   0.000E+00           T           F   0.000E+00   6.000E-01   0.000E+00   1.000E+00   0.000E+00   1.000E+00   1.000E+00         -           -           -  
   226           2      0.0000      0.0000     -8.5000   4.066E+00   1.001E-04   0.000E+00   0.000E+00           T           F   0.000E+00   6.000E-01   0.000E+00   1.000E+00   0.000E+00   1.000E+00   1.000E+00         -           -           -  
   227           2      0.0000      0.0000     -8.0000   3.975E+00   1.001E-04   0.000E+00   0.000E+00           T           F   0.000E+00   6.000E-01   0.000E+00   1.000E+00   0.000E+00   1.000E+00   1.000E+00         -           -           -  
   228           2      0.0000      0.0000     -7.5000   3.884E+00   9.990E-05   0.000E+00   0.000E+00           T           F   0.000E+00   6.000E-01   0.000E+00   1.000E+00   0.000E+00   1.000E+00   1.000E+00         -           -           -  
   229           2      0.0000      0.0000     -7.0000   3.794E+00   9.990E-05   0.000E+00   0.000E+00           T           F   0.000E+00   6.000E-01   0.000E+00   1.000E+00   0.000E+00   1.000E+00   1.000E+00         -           -           -  
   230           2      0.0000      0.0000     -6.5000   3.703E+00   1.001E-04   0.000E+00   0.000E+00           T           F   0.000E+00   6.000E-01   0.000E+00   1.000E+00   0.000E+00   1.000E+00   1.000E+00         -           -           -  
   231           2      0.0000      0.0000     -6.0000   3.612E+00   9.990E-05   0.000E+00   0.000E+00           T           F   0.000E+00   6.000E-01   0.000E+00   1.000E+00   0.000E+00   1.000E+00   1.000E+00         -           -           -  
   232           2      0.0000      0.0000     -5.5000   3.522E+00   9.966E-05   0.000E+00   0.000E+00           T           F   0.000E+00   6.000E-01   0.000E+00   1.000E+00   0.000E+00   1.000E+00   1.000E+00         -           -           -  
   233           2      0.0000      0.0000     -5.0000   3.431E+00   9.990E-05   0.000E+00   0.000E+00           T           F   0.000E+00   6.000E-01   0.000E+00   1.000E+00   0.000E+00   1.000E+00   1.000E+00         -           -           -  
   234           2      0.0000      0.0000     -4.5000   3.341E+00   9.990E-05   0.000E+00   0.000E+00           T           F   0.000E+00   6.000E-01   0.000E+00   1.000E+00   0.000E+00   1.000E+00   1.000E+00         -           -           -  
   235           3      0.0000      0.0000     -3.5000   3.250E+00   9.990E-05   0.000E+00   0.000E+00           T           F   0.000E+00   6.000E-01   0.000E+00   1.000E+00   0.000E+00   1.000E+00   1.000E+00         -           -           -  
   236           3      0.0000      0.0000     -3.0000   3.250E+00   9.990E-05   0.000E+00   0.000E+00           T           F   0.000E+00   6.000E-01   0.000E+00   1.000E+00   0.000E+00   1.000E+00   1.000E+00         -           -           -  
   237           3      0.0000      0.0000     -2.5000   3.250E+00   9.990E-05   0.000E+00   0.000E+00           T           F   0.000E+00   6.000E-01   0.000E+00   1.000E+00   0.000E+00   1.000E+00   1.000E+00         -           -           -  
   238           3      0.0000      0.0000     -2.0000   3.250E+00   9.966E-05   0.000E+00   0.000E+00           T           F   0.000E+00   6.000E-01   0.000E+00   1.000E+00   0.000E+00   1.000E+00   1.000E+00         -           -           -  
   239           3      0.0000      0.0000     -1.5000   3.250E+00   9.990E-05   0.000E+00   0.000E+00           T           F   0.000E+00   6.000E-01   0.000E+00   1.000E+00   0.000E+00   1.000E+00   1.000E+00         -           -           -  
   240           3      0.0000      0.0000     -1.0000   3.250E+00   1.001E-04   0.000E+00   0.000E+00           T           F   0.000E+00   6.000E-01   0.000E+00   1.000E+00   0.000E+00   1.000E+00   1.000E+00         -           -           -  
   241           3      0.0000      0.0000     -0.5000   3.250E+00   9.990E-05   0.000E+00   0.000E+00           T           F   0.000E+00   6.000E-01   0.000E+00   1.000E+00   0.000E+00   1.000E+00   1.000E+00         -           -           -  
   242           3      0.0000      0.0000      0.0000   3.250E+00   9.990E-05   0.000E+00   0.000E+00           T           F   0.000E+00   6.000E-01   0.000E+00   1.000E+00   0.000E+00   1.000E+00   1.000E+00         -           -           -  
   243           3      0.0000      0.0000      0.5000   3.250E+00   1.001E-04   0.000E+00   0.000E+00           T           F   0.000E+00   6.000E-01   0.000E+00   1.000E+00   0.000E+00   1.000E+00   1.000E+00         -           -           -  
   244           3      0.0000      0.0000      1.0000   3.250E+00   9.966E-05   0.000E+00   0.000E+00           T           F   0.000E+00   6.000E-01   0.000E+00   1.000E+00   0.000E+00   1.000E+00   1.000E+00         -           -           -  
   245           3      0.0000      0.0000      1.5000   3.250E+00   9.990E-05   0.000E+00   0.000E+00           T           F   0.000E+00   6.000E-01   0.000E+00   1.000E+00   0.000E+00   1.000E+00   1.000E+00         -           -           -  
   246           3      0.0000      0.0000      2.0000   3.250E+00   9.990E-05   0.000E+00   0.000E+00           T           F   0.000E+00   6.000E-01   0.000E+00   1.000E+00   0.000E+00   1.000E+00   1.000E+00         -           -           -  
   247           3      0.0000      0.0000      2.5000   3.250E+00   9.990E-05   0.000E+00   0.000E+00           T           F   0.000E+00   6.000E-01   0.000E+00   1.000E+00   0.000E+00   1.000E+00   1.000E+00         -           -           -  
   248           3      0.0000      0.0000      3.0000   3.250E+00   1.001E-04   0.000E+00   0.000E+00           T           F   0.000E+00   6.000E-01   0.000E+00   1.000E+00   0.000E+00   1.000E+00   1.000E+00         -           -           -  
   249           3      0.0000      0.0000      3.5000   3.250E+00   9.990E-05   0.000E+00   0.000E+00           T           F   0.000E+00   6.000E-01   0.000E+00   1.000E+00   0.000E+00   1.000E+00   1.000E+00         -           -           -  
   250           3      0.0000      0.0000      4.0000   3.250E+00   9.990E-05   0.000E+00   0.000E+00           T           F   0.000E+00   6.000E-01   0.000E+00   1.000E+00   0.000E+00   1.000E+00   1.000E+00         -           -           -  
   251           3      0.0000      0.0000      4.5000   3.250E+00   9.990E-05   0.000E+00   0.000E+00           T           F   0.000E+00   6.000E-01   0.000E+00   1.000E+00   0.000E+00   1.000E+00   1.000E+00         -           -           -  
   252           3      0.0000      0.0000      5.0000   3.250E+00   9.990E-05   0.000E+00   0.000E+00           T           F   0.000E+00   6.000E-01   0.000E+00   1.000E+00   0.000E+00   1.000E+00   1.000E+00         -           -           -  
   253           3      0.0000      0.0000      5.5000   3.250E+00   9.966E-05   0.000E+00   0.000E+00           T           F   0.000E+00   6.000E-01   0.000E+00   1.000E+00   0.000E+00   1.000E+00   1.000E+00         -           -           -  
   254           3      0.0000      0.0000      6.0000   3.250E+00   9.990E-05   0.000E+00   0.000E+00           T           F   0.000E+00   6.000E-01   0.000E+00   1.000E+00   0.000E+00   1.000E+00   1.000E+00         -           -           -  
   255           3      0.0000      0.0000      6.5000   3.250E+00   9.990E-05   0.000E+00   0.000E+00           T           F   0.000E+00   6.000E-01   0.000E+00   1.000E+00   0.000E+00   1.000E+00   1.000E+00         -           -           -  
   256           3      0.0000      0.0000      7.0000   3.250E+00   1.001E-04   0.000E+00   0.000E+00           T           F   0.000E+00   6.000E-01   0.000E+00   1.000E+00   0.000E+00   1.000E+00   1.000E+00         -           -           -  
   257           3      0.0000      0.0000      7.5000   3.250E+00   9.990E-05   0.000E+00   0.000E+00           T           F   0.000E+00   6.000E-01   0.000E+00   1.000E+00   0.000E+00   1.000E+00   1.000E+00         -           -           -  
   258           3      0.0000      0.0000      8.0000   3.250E+00   9.990E-05   0.000E+00   0.000E+00           T           F   0.000E+00   6.000E-01   0.000E+00   1.000E+00   0.000E+00   1.000E+00   1.000E+00         -           -           -  
   259           3      0.0000      0.0000      8.5000   3.250E+00   9.990E-05   0.000E+00   0.000E+00           T           F   0.000E+00   6.000E-01   0.000E+00   1.000E+00   0.000E+00   1.000E+00   1.000E+00         -           -           -  
   260           3      0.0000      0.0000      9.0000   3.250E+00   9.990E-05   0.000E+00   0.000E+00           T           F   0.000E+00   6.000E-01   0.000E+00   1.000E+00   0.000E+00   1.000E+00   1.000E+00         -           -           -  
   261           3      0.0000      0.0000      9.5000   3.250E+00   9.990E-05   0.000E+00   0.000E+00           T           F   0.000E+00   6.000E-01   0.000E+00   1.000E+00   0.000E+00   1.000E+00   1.000E+00         -           -           -  



 Members


 MemberID  joint1  joint2      Length       NElem         Volume       MGVolume          R1           t1             R2           t2          PropPot      FilledFlag   FillDensity    FillFSLoc     FillMass         Cd1            Ca1          Cp1          AxCd1         AxCa1         AxCp1        JAxCd1        JAxCa1       JAxCp1           Cd2           Ca2           Cp2          AxCd2         AxCa2         AxCp2        JAxCd2        JAxCa2        JAxCp2   
   (-)      (-)     (-)         (m)          (-)          (m^3)         (m^3)            (m)          (m)            (m)          (m)           (-)           (-)        (kg/m^3)         (-)          (kg)           (-)            (-)          (-)           (-)           (-)           (-)           (-)           (-)          (-)            (-)           (-)           (-)           (-)           (-)           (-)           (-)           (-)           (-)    
        1       1       2   1.08000E+02           216   0.00000E+00   0.00000E+00   4.70000E+00   1.00136E-04   4.70000E+00   1.00136E-04             T             F   0.00000E+00   0.00000E+00   0.00000E+00   6.00000E-01   0.00000E+00   1.00000E+00   0.00000E+00   1.00000E+00   1.00000E+00   0.00000E+00   0.00000E+00   1.00000E+00   6.00000E-01   0.00000E+00   1.00000E+00   0.00000E+00   1.00000E+00   1.00000E+00   0.00000E+00   0.00000E+00   1.00000E+00
        2       2       3   8.00000E+00            16   0.00000E+00   0.00000E+00   4.70000E+00   1.00136E-04   3.25000E+00   9.98974E-05             T             F   0.00000E+00   0.00000E+00   0.00000E+00   6.00000E-01   0.00000E+00   1.00000E+00   0.00000E+00   1.00000E+00   1.00000E+00   0.00000E+00   0.00000E+00   1.00000E+00   6.00000E-01   0.00000E+00   1.00000E+00   0.00000E+00   1.00000E+00   1.00000E+00   0.00000E+00   0.00000E+00   1.00000E+00
        3       3       4   1.40000E+01            28   0.00000E+00   0.00000E+00   3.25000E+00   9.98974E-05   3.25000E+00   9.98974E-05             T             F   0.00000E+00   0.00000E+00   0.00000E+00   6.00000E-01   0.00000E+00   1.00000E+00   0.00000E+00   1.00000E+00   1.00000E+00   0.00000E+00   0.00000E+00   1.00000E+00   6.00000E-01   0.00000E+00   1.00000E+00   0.00000E+00   1.00000E+00   1.00000E+00   0.00000E+00   0.00000E+00   1.00000E+00



Requested Member Outputs


   Label         Xi          Yi          Zi       MemberID    StartXi     StartYi     StartZi      EndXi       EndYi       EndZi        Loc    
    (-)          (m)         (m)         (m)        (-)         (m)         (m)         (m)         (m)         (m)         (m)         (-)    



 Requested Joint Outputs


   Label         Xi          Yi          Zi      InpJointID
    (-)          (m)         (m)         (m)        (-)    

This summary file was closed on 12-Sep-2023 at 21:26:29.

