
This summary file was generated by HydroDyn  on 21-Aug-2023 at 14:48:24.

