
This summary information was generated by ElastoDyn on 27-Sep-2022 at 22:44:33.


Turbine features:

            Upwind, three-bladed rotor with rigid hub.
            The model has 4 of 24 DOFs active (enabled) at start-up.
 Enabled    Platform horizontal surge translation DOF 
 Disabled   Platform horizontal sway translation DOF 
 Disabled   Platform vertical heave translation DOF 
 Disabled   Platform roll tilt rotation DOF 
 Enabled    Platform pitch tilt rotation DOF 
 Disabled   Platform yaw rotation DOF 
 Enabled    1st tower fore-aft bending mode DOF 
 Disabled   1st tower side-to-side bending mode DOF 
 Disabled   2nd tower fore-aft bending mode DOF 
 Disabled   2nd tower side-to-side bending mode DOF 
 Disabled   Nacelle yaw DOF 
 Disabled   Rotor-furl DOF 
 Enabled    Variable speed generator DOF 
 Disabled   Drivetrain rotational-flexibility DOF 
 Disabled   Tail-furl DOF 
 Disabled   1st flapwise bending-mode DOF of blade 1 
 Disabled   1st edgewise bending-mode DOF of blade 1 
 Disabled   2nd flapwise bending-mode DOF of blade 1 
 Disabled   1st flapwise bending-mode DOF of blade 2 
 Disabled   1st edgewise bending-mode DOF of blade 2 
 Disabled   2nd flapwise bending-mode DOF of blade 2 
 Disabled   1st flapwise bending-mode DOF of blade 3 
 Disabled   1st edgewise bending-mode DOF of blade 3 
 Disabled   2nd flapwise bending-mode DOF of blade 3 


Time steps:

    Structural            (s)        0.05000000


Some calculated parameters:

    Hub-Height            (m)            90.000
    Flexible Tower Length (m)            77.600
    Flexible Blade Length (m)            61.500


Rotor mass properties:

    Rotor Mass            (kg)       109389.852
    Rotor Inertia         (kg-m^2) 38677056.000
                                        Blade 1      Blade 2      Blade 3
                                        -------      -------      -------
    Mass                  (kg)        17536.617    17536.617    17536.617
    Second Mass Moment    (kg-m^2) 11752357.000 11752357.000 11752357.000
    First Mass Moment     (kg-m)     362132.781   362132.781   362132.781
    Center of Mass        (m)            20.650       20.650       20.650


Additional mass properties:

    Tower-top Mass        (kg)       349389.844
    Tower Mass            (kg)       249718.000
    Platform Mass         (kg)      7466330.000
    Mass Incl. Platform   (kg)      8065438.000


Interpolated tower properties:

Node  TwFract   HNodes  DHNodes  TMassDen    FAStiff    SSStiff
 (-)      (-)      (m)      (m)    (kg/m)     (Nm^2)     (Nm^2)
   1    0.025    1.940    3.880  4586.570  5.823E+11  5.823E+11
   2    0.075    5.820    3.880  4425.710  5.392E+11  5.392E+11
   3    0.125    9.700    3.880  4267.650  4.985E+11  4.985E+11
   4    0.175   13.580    3.880  4112.390  4.601E+11  4.601E+11
   5    0.225   17.460    3.880  3959.930  4.239E+11  4.239E+11
   6    0.275   21.340    3.880  3810.270  3.900E+11  3.900E+11
   7    0.325   25.220    3.880  3663.410  3.581E+11  3.581E+11
   8    0.375   29.100    3.880  3519.350  3.282E+11  3.282E+11
   9    0.425   32.980    3.880  3378.090  3.002E+11  3.002E+11
  10    0.475   36.860    3.880  3239.630  2.740E+11  2.740E+11
  11    0.525   40.740    3.880  3103.972  2.495E+11  2.495E+11
  12    0.575   44.620    3.880  2971.117  2.267E+11  2.267E+11
  13    0.625   48.500    3.880  2841.062  2.055E+11  2.055E+11
  14    0.675   52.380    3.880  2713.807  1.859E+11  1.859E+11
  15    0.725   56.260    3.880  2589.355  1.676E+11  1.676E+11
  16    0.775   60.140    3.880  2467.705  1.507E+11  1.507E+11
  17    0.825   64.020    3.880  2348.852  1.351E+11  1.351E+11
  18    0.875   67.900    3.880  2232.797  1.208E+11  1.208E+11
  19    0.925   71.780    3.880  2119.545  1.076E+11  1.076E+11
  20    0.975   75.660    3.880  2009.095  9.552E+10  9.552E+10


Interpolated blade 1 properties:

Node  BlFract   RNodes  DRNodes PitchAxis  StrcTwst  BMassDen    FlpStff    EdgStff
 (-)      (-)      (m)      (m)       (-)     (deg)    (kg/m)     (Nm^2)     (Nm^2)
   1    0.029    3.309    3.618     0.253    13.308   787.554  1.823E+10  1.952E+10
   2    0.088    6.926    3.618     0.294    13.308   464.487  7.021E+09  9.977E+09
   3    0.147   10.544    3.618     0.339    13.308   414.917  4.944E+09  6.990E+09
   4    0.206   14.162    3.618     0.375    12.545   412.664  3.178E+09  6.695E+09
   5    0.265   17.779    3.618     0.375    10.770   361.957  2.263E+09  4.796E+09
   6    0.324   21.397    3.618     0.375     9.757   346.452  1.862E+09  4.283E+09
   7    0.382   25.015    3.618     0.375     8.731   330.982  1.440E+09  3.835E+09
   8    0.441   28.632    3.618     0.375     7.647   304.395  9.968E+08  3.304E+09
   9    0.500   32.250    3.618     0.375     6.549   272.375  6.410E+08  2.685E+09
  10    0.559   35.868    3.618     0.375     5.498   250.787  4.010E+08  2.292E+09
  11    0.618   39.485    3.618     0.375     4.462   211.669  2.468E+08  1.610E+09
  12    0.676   43.103    3.618     0.375     3.482   177.049  1.409E+08  1.225E+09
  13    0.735   46.721    3.618     0.375     2.693   153.160  9.890E+07  9.067E+08
  14    0.794   50.338    3.618     0.375     1.993   128.005  7.145E+07  6.486E+08
  15    0.853   53.956    3.618     0.375     1.292   102.116  4.819E+07  4.472E+08
  16    0.912   57.574    3.618     0.375     0.598    77.547  3.095E+07  3.109E+08
  17    0.971   61.191    3.618     0.375     0.141    51.403  1.013E+07  1.019E+08


Interpolated blade 2 properties:

Node  BlFract   RNodes  DRNodes PitchAxis  StrcTwst  BMassDen    FlpStff    EdgStff
 (-)      (-)      (m)      (m)       (-)     (deg)    (kg/m)     (Nm^2)     (Nm^2)
   1    0.029    3.309    3.618     0.253    13.308   787.554  1.823E+10  1.952E+10
   2    0.088    6.926    3.618     0.294    13.308   464.487  7.021E+09  9.977E+09
   3    0.147   10.544    3.618     0.339    13.308   414.917  4.944E+09  6.990E+09
   4    0.206   14.162    3.618     0.375    12.545   412.664  3.178E+09  6.695E+09
   5    0.265   17.779    3.618     0.375    10.770   361.957  2.263E+09  4.796E+09
   6    0.324   21.397    3.618     0.375     9.757   346.452  1.862E+09  4.283E+09
   7    0.382   25.015    3.618     0.375     8.731   330.982  1.440E+09  3.835E+09
   8    0.441   28.632    3.618     0.375     7.647   304.395  9.968E+08  3.304E+09
   9    0.500   32.250    3.618     0.375     6.549   272.375  6.410E+08  2.685E+09
  10    0.559   35.868    3.618     0.375     5.498   250.787  4.010E+08  2.292E+09
  11    0.618   39.485    3.618     0.375     4.462   211.669  2.468E+08  1.610E+09
  12    0.676   43.103    3.618     0.375     3.482   177.049  1.409E+08  1.225E+09
  13    0.735   46.721    3.618     0.375     2.693   153.160  9.890E+07  9.067E+08
  14    0.794   50.338    3.618     0.375     1.993   128.005  7.145E+07  6.486E+08
  15    0.853   53.956    3.618     0.375     1.292   102.116  4.819E+07  4.472E+08
  16    0.912   57.574    3.618     0.375     0.598    77.547  3.095E+07  3.109E+08
  17    0.971   61.191    3.618     0.375     0.141    51.403  1.013E+07  1.019E+08


Interpolated blade 3 properties:

Node  BlFract   RNodes  DRNodes PitchAxis  StrcTwst  BMassDen    FlpStff    EdgStff
 (-)      (-)      (m)      (m)       (-)     (deg)    (kg/m)     (Nm^2)     (Nm^2)
   1    0.029    3.309    3.618     0.253    13.308   787.554  1.823E+10  1.952E+10
   2    0.088    6.926    3.618     0.294    13.308   464.487  7.021E+09  9.977E+09
   3    0.147   10.544    3.618     0.339    13.308   414.917  4.944E+09  6.990E+09
   4    0.206   14.162    3.618     0.375    12.545   412.664  3.178E+09  6.695E+09
   5    0.265   17.779    3.618     0.375    10.770   361.957  2.263E+09  4.796E+09
   6    0.324   21.397    3.618     0.375     9.757   346.452  1.862E+09  4.283E+09
   7    0.382   25.015    3.618     0.375     8.731   330.982  1.440E+09  3.835E+09
   8    0.441   28.632    3.618     0.375     7.647   304.395  9.968E+08  3.304E+09
   9    0.500   32.250    3.618     0.375     6.549   272.375  6.410E+08  2.685E+09
  10    0.559   35.868    3.618     0.375     5.498   250.787  4.010E+08  2.292E+09
  11    0.618   39.485    3.618     0.375     4.462   211.669  2.468E+08  1.610E+09
  12    0.676   43.103    3.618     0.375     3.482   177.049  1.409E+08  1.225E+09
  13    0.735   46.721    3.618     0.375     2.693   153.160  9.890E+07  9.067E+08
  14    0.794   50.338    3.618     0.375     1.993   128.005  7.145E+07  6.486E+08
  15    0.853   53.956    3.618     0.375     1.292   102.116  4.819E+07  4.472E+08
  16    0.912   57.574    3.618     0.375     0.598    77.547  3.095E+07  3.109E+08
  17    0.971   61.191    3.618     0.375     0.141    51.403  1.013E+07  1.019E+08


Requested Outputs:


 Col   Parameter            Units               
 ---   ---------------      ---------------     
   0   Time                 (s)                 
   1   BldPitch1            (deg)               
   2   BldPitch2            (deg)               
   3   BldPitch3            (deg)               
   4   Azimuth              (deg)               
   5   RotSpeed             (rpm)               
   6   GenSpeed             (rpm)               
   7   NacYaw               (deg)               
   8   OoPDefl1             (m)                 
   9   IPDefl1              (m)                 
  10   TwstDefl1            (deg)               
  11   OoPDefl2             (m)                 
  12   IPDefl2              (m)                 
  13   TwstDefl2            (deg)               
  14   OoPDefl3             (m)                 
  15   IPDefl3              (m)                 
  16   TwstDefl3            (deg)               
  17   NcIMUTAxs            (m/s^2)             
  18   NcIMUTAys            (m/s^2)             
  19   NcIMUTAzs            (m/s^2)             
  20   NcIMUTVxs            (m/s)               
  21   NcIMUTVys            (m/s)               
  22   NcIMUTVzs            (m/s)               
  23   TTDspFA              (m)                 
  24   TTDspSS              (m)                 
  25   TTDspTwst            (deg)               
  26   YawBrTAxp            (m/s^2)             
  27   YawBrTAyp            (m/s^2)             
  28   YawBrTAzp            (m/s^2)             
  29   PtfmSurge            (m)                 
  30   PtfmSway             (m)                 
  31   PtfmHeave            (m)                 
  32   PtfmRoll             (deg)               
  33   PtfmPitch            (deg)               
  34   PtfmYaw              (deg)               
  35   PtfmTVxi             (m/s)               
  36   PtfmTVyi             (m/s)               
  37   PtfmTVzi             (m/s)               
  38   PtfmRVxi             (deg/s)             
  39   PtfmRVyi             (deg/s)             
  40   PtfmRVzi             (deg/s)             
  41   PtfmTAxi             (m/s^2)             
  42   PtfmTAyi             (m/s^2)             
  43   PtfmTAzi             (m/s^2)             
  44   PtfmRAxi             (deg/s^2)           
  45   PtfmRAyi             (deg/s^2)           
  46   PtfmRAzi             (deg/s^2)           
  47   TwrBsFxt             (kN)                
  48   TwrBsFyt             (kN)                
  49   TwrBsFzt             (kN)                
  50   TwrBsMxt             (kN-m)              
  51   TwrBsMyt             (kN-m)              
  52   TwrBsMzt             (kN-m)              
  53   RootFxc1             (kN)                
  54   RootFyc1             (kN)                
  55   RootFzc1             (kN)                
  56   RootMxc1             (kN-m)              
  57   RootMyc1             (kN-m)              
  58   RootMzc1             (kN-m)              
  59   RootFxc2             (kN)                
  60   RootFyc2             (kN)                
  61   RootFzc2             (kN)                
  62   RootMxc2             (kN-m)              
  63   RootMyc2             (kN-m)              
  64   RootMzc2             (kN-m)              
  65   RootFxc3             (kN)                
  66   RootFyc3             (kN)                
  67   RootFzc3             (kN)                
  68   RootMxc3             (kN-m)              
  69   RootMyc3             (kN-m)              
  70   RootMzc3             (kN-m)              
  71   RotThrust            (kN)                
  72   LSSGagFya            (kN)                
  73   LSSGagFza            (kN)                
  74   RotTorq              (kN-m)              
  75   LSSGagMya            (kN-m)              
  76   LSSGagMza            (kN-m)              
  77   YawBrFxp             (kN)                
  78   YawBrFyp             (kN)                
  79   YawBrFzp             (kN)                
  80   YawBrMxp             (kN-m)              
  81   YawBrMyp             (kN-m)              
  82   YawBrMzp             (kN-m)              


  Requested Output Channels at each blade station:
 Col   Parameter            Units               
 ---   ---------------      ---------------     
