
This summary file was generated by TurbSim (from OpenFAST-v3.4.0) on 11-Sep-2023 at 15:28:06.


Runtime Options:

     13428  Random seed #1
    RANLUX  Type of random number generator
         F  Output binary HH turbulence parameters?
         F  Output formatted turbulence parameters?
         F  Output AeroDyn HH files?
         T  Output AeroDyn FF files?
         F  Output BLADED FF files?
         T  Output tower data?
         F  Output HAWC FF files?
         F  Output formatted FF files?
         F  Output coherent turbulence time step file?
 0 -  NONE  IEC turbulence models scaled to exact specified standard deviation


Turbine/Model Specifications:

        31  Vertical grid-point matrix dimension
        31  Horizontal grid-point matrix dimension
     0.050  Time step [seconds]
   630.000  Analysis time [seconds]
  3000.000  Usable output time [seconds]
    90.000  Hub height [m]
   145.000  Grid height [m]
   145.000  Grid width [m]
     0.000  Vertical flow angle [degrees]
     0.000  Horizontal flow angle [degrees]


Meteorological Boundary Conditions:

    IECKAI  IEC Kaimal spectral model
         1  IEC standard: IEC 61400-1 Ed. 3: 2005
         B  IEC turbulence characteristic
       NTM  IEC Normal Turbulence Model
       N/A  IEC Extreme Turbulence Model (ETM) "c" parameter [m/s]
       PL   Wind profile type
    90.000  Reference height [m]
    16.000  Reference wind speed [m/s]
       N/A  Jet height [m]
     0.200  Power law exponent
     0.030  Surface roughness length [m]


Non-IEC Meteorological Boundary Conditions:

       N/A  Site latitude [degrees]
       N/A  Gradient Richardson number
       N/A  Friction or shear velocity [m/s]
       N/A  Mixing layer depth [m]
       N/A  Mean hub u'w' Reynolds stress
       N/A  Mean hub u'v' Reynolds stress
       N/A  Mean hub v'w' Reynolds stress


Spatial Coherence Models:

       IEC  u-component coherence model
      NONE  v-component coherence model
      NONE  w-component coherence model
(   12.000, 0.353E-03)  u-component coherence parameters
                   N/A  v-component coherence parameters
                   N/A  w-component coherence parameters
       N/A  Coherence exponent


You have requested that the following file(s) be generated:

   D:\Master\TUD\Y2\Thesis\matlab\repo\linearization_deepc\5MW_Baseline\Wind\90m_16mps.bts (AeroDyn/TurbSim full-field wind file)


Turbulence Simulation Scaling Parameter Summary:

   Turbulence model used                            =  IEC Kaimal
   Turbulence characteristic                        =  B
   IEC turbulence type                              =  Normal Turbulence Model
   IEC standard                                     =  IEC 61400-1 Ed. 3: 2005
   Mean wind speed at hub height                    =   16.000 m/s
   Expected value of turbulence intensity at 15 m/s =   14.000%
   Characteristic value of standard deviation       =    2.464 m/s
   Turbulence scale                                 =   42.000 m
   u-component integral scale                       =  340.200 m
   Coherency scale                                  =  340.200 m
   Characteristic value of hub turbulence intensity =   15.400%
   Gradient Richardson number                       =    0.000

   Wind profile type                                =  Power law
   Power law exponent                               =    0.200
   Mean shear across rotor disk                     =    0.045 (m/s)/m
   Assumed rotor diameter                           =  145.000 m
   Surface roughness length                         =    0.030 m

   Nyquist frequency of turbulent wind field        =   10.000 Hz

   Number of time steps in the FFT                  =    60192
   Number of time steps output                      =    60182
   Number of points simulated                       =      964


Mean Flow Angles:

   Vertical   =   0.0 degrees
   Horizontal =   0.0 degrees

Mean Wind Speed Profile:

   Height    Wind Speed   Horizontal Angle  Vertical Angle  U-comp (X)   V-comp (Y)   W-comp (Z)
     (m)        (m/s)         (degrees)       (degrees)       (m/s)        (m/s)        (m/s)   
   ------    ----------   ----------------  --------------  ----------   ----------   ----------
    162.5       18.01            0.00            0.00         18.01         0.00         0.00
    157.7       17.90            0.00            0.00         17.90         0.00         0.00
    152.8       17.79            0.00            0.00         17.79         0.00         0.00
    148.0       17.67            0.00            0.00         17.67         0.00         0.00
    143.2       17.56            0.00            0.00         17.56         0.00         0.00
    138.3       17.44            0.00            0.00         17.44         0.00         0.00
    133.5       17.31            0.00            0.00         17.31         0.00         0.00
    128.7       17.19            0.00            0.00         17.19         0.00         0.00
    123.8       17.05            0.00            0.00         17.05         0.00         0.00
    119.0       16.92            0.00            0.00         16.92         0.00         0.00
    114.2       16.78            0.00            0.00         16.78         0.00         0.00
    109.3       16.63            0.00            0.00         16.63         0.00         0.00
    104.5       16.49            0.00            0.00         16.49         0.00         0.00
     99.7       16.33            0.00            0.00         16.33         0.00         0.00
     94.8       16.17            0.00            0.00         16.17         0.00         0.00
     90.0       16.00            0.00            0.00         16.00         0.00         0.00
     85.2       15.82            0.00            0.00         15.82         0.00         0.00
     80.3       15.64            0.00            0.00         15.64         0.00         0.00
     75.5       15.45            0.00            0.00         15.45         0.00         0.00
     70.7       15.24            0.00            0.00         15.24         0.00         0.00
     65.8       15.03            0.00            0.00         15.03         0.00         0.00
     61.0       14.80            0.00            0.00         14.80         0.00         0.00
     56.2       14.56            0.00            0.00         14.56         0.00         0.00
     51.3       14.30            0.00            0.00         14.30         0.00         0.00
     46.5       14.02            0.00            0.00         14.02         0.00         0.00
     41.7       13.72            0.00            0.00         13.72         0.00         0.00
     36.8       13.38            0.00            0.00         13.38         0.00         0.00
     32.0       13.01            0.00            0.00         13.01         0.00         0.00
     27.2       12.59            0.00            0.00         12.59         0.00         0.00
     22.3       12.11            0.00            0.00         12.11         0.00         0.00
     17.5       11.53            0.00            0.00         11.53         0.00         0.00
     12.7       10.81            0.00            0.00         10.81         0.00         0.00
      7.8        9.82            0.00            0.00          9.82         0.00         0.00
      3.0        8.10            0.00            0.00          8.10         0.00         0.00


Harvested Random Seeds after Generation of the Random Numbers:

    808724664 K 1
            0 K 2


Hub-Height Simulated Turbulence Statistical Summary:

   Type of Wind        Min (m/s)   Mean (m/s)    Max (m/s)  Sigma (m/s)       TI (%)
   ----------------    ---------   ----------    ---------  -----------       ------
   Longitudinal (u)         7.90        16.00        26.81        2.435       15.221
   Lateral (v)             -8.33         0.00         8.46        1.949       12.182
   Vertical (w)            -4.76         0.00         4.66        1.203        7.520
   U component              7.90        16.00        26.81        2.435       15.221
   V component             -8.33         0.00         8.46        1.949       12.182
   W component             -4.76         0.00         4.66        1.203        7.520
   Horizontal (U&V)         7.94        16.12        26.84        2.424       15.036
   Total                    8.03        16.17        26.88        2.418       14.958

                       Min Reynolds     Mean Reynolds    Max Reynolds    Correlation
   Product             Stress (m/s)^2   Stress (m/s)^2   Stress (m/s)^2  Coefficient
   ----------------    --------------   --------------   --------------  -----------
   u'w'                    -23.291            -0.065            23.675        -0.022
   u'v'                    -31.416             0.030            41.857         0.006
   v'w'                    -23.121            -0.032            16.207        -0.014


   Friction Velocity (Ustar)  =      0.255 m/s
   Maximum Instantaneous TKE  =     60.368 (m/s)^2
   Maximum Instantaneous CTKE =     20.935 (m/s)^2


Grid Point Variance Summary:

   Y-coord  -72.50  -67.67  -62.83  -58.00  -53.17  -48.33  -43.50  -38.67  -33.83  -29.00  -24.17  -19.33  -14.50   -9.67   -4.83    0.00    4.83    9.67   14.50   19.33   24.17   29.00   33.83   38.67   43.50   48.33   53.17   58.00   62.83   67.67   72.50

   Height   Standard deviation at grid points for the u component:
   162.50    2.505   2.511   2.486   2.511   2.535   2.471   2.449   2.422   2.413   2.440   2.416   2.436   2.419   2.398   2.401   2.363   2.349   2.297   2.364   2.339   2.319   2.364   2.333   2.333   2.341   2.326   2.369   2.318   2.378   2.312   2.288
   157.67    2.479   2.472   2.475   2.471   2.506   2.438   2.434   2.423   2.452   2.435   2.409   2.460   2.358   2.381   2.339   2.337   2.333   2.381   2.387   2.362   2.340   2.303   2.356   2.328   2.321   2.346   2.333   2.351   2.318   2.299   2.243
   152.83    2.556   2.454   2.477   2.489   2.502   2.409   2.401   2.408   2.440   2.371   2.400   2.397   2.403   2.411   2.315   2.342   2.342   2.362   2.357   2.349   2.342   2.307   2.328   2.319   2.350   2.312   2.295   2.350   2.306   2.324   2.246
   148.00    2.538   2.497   2.487   2.485   2.495   2.406   2.399   2.433   2.413   2.395   2.432   2.416   2.400   2.415   2.402   2.377   2.416   2.433   2.421   2.377   2.331   2.314   2.308   2.301   2.294   2.304   2.287   2.304   2.349   2.278   2.277
   143.17    2.511   2.506   2.471   2.500   2.442   2.415   2.383   2.400   2.386   2.349   2.380   2.424   2.389   2.388   2.419   2.434   2.439   2.497   2.435   2.396   2.346   2.350   2.326   2.300   2.277   2.338   2.334   2.320   2.338   2.323   2.276
   138.33    2.514   2.460   2.453   2.435   2.421   2.385   2.359   2.378   2.398   2.440   2.415   2.389   2.416   2.430   2.418   2.486   2.539   2.488   2.448   2.411   2.367   2.339   2.325   2.297   2.269   2.325   2.380   2.378   2.322   2.314   2.276
   133.50    2.408   2.423   2.412   2.434   2.416   2.365   2.393   2.310   2.376   2.405   2.420   2.384   2.408   2.487   2.494   2.553   2.550   2.544   2.476   2.438   2.408   2.311   2.294   2.367   2.322   2.288   2.292   2.315   2.308   2.302   2.312
   128.67    2.387   2.369   2.358   2.357   2.387   2.349   2.333   2.336   2.334   2.390   2.403   2.420   2.394   2.458   2.530   2.583   2.481   2.520   2.462   2.445   2.420   2.337   2.311   2.321   2.303   2.303   2.267   2.277   2.312   2.330   2.285
   123.83    2.340   2.319   2.282   2.334   2.331   2.319   2.291   2.373   2.386   2.407   2.393   2.416   2.398   2.440   2.422   2.529   2.546   2.509   2.475   2.419   2.386   2.339   2.310   2.334   2.355   2.304   2.243   2.259   2.287   2.232   2.270
   119.00    2.322   2.265   2.227   2.307   2.331   2.333   2.321   2.327   2.407   2.433   2.407   2.426   2.386   2.387   2.478   2.472   2.469   2.433   2.454   2.455   2.371   2.373   2.327   2.369   2.404   2.329   2.260   2.242   2.262   2.242   2.283
   114.17    2.263   2.288   2.281   2.318   2.322   2.376   2.317   2.401   2.399   2.389   2.406   2.429   2.372   2.425   2.455   2.436   2.475   2.435   2.397   2.392   2.360   2.440   2.350   2.386   2.388   2.385   2.290   2.239   2.251   2.252   2.258
   109.33    2.257   2.297   2.276   2.304   2.323   2.385   2.387   2.421   2.381   2.453   2.365   2.409   2.428   2.452   2.443   2.484   2.432   2.408   2.418   2.378   2.388   2.386   2.364   2.389   2.440   2.360   2.346   2.299   2.260   2.247   2.261
   104.50    2.295   2.339   2.345   2.329   2.355   2.386   2.387   2.363   2.386   2.410   2.419   2.372   2.378   2.391   2.420   2.441   2.413   2.404   2.403   2.400   2.388   2.461   2.426   2.387   2.430   2.379   2.364   2.368   2.319   2.294   2.292
    99.67    2.326   2.344   2.408   2.369   2.331   2.358   2.336   2.389   2.404   2.395   2.425   2.436   2.422   2.438   2.476   2.440   2.478   2.436   2.410   2.399   2.453   2.482   2.453   2.439   2.450   2.442   2.356   2.374   2.359   2.332   2.366
    94.83    2.353   2.347   2.380   2.392   2.383   2.330   2.389   2.449   2.422   2.392   2.402   2.401   2.413   2.450   2.465   2.471   2.472   2.424   2.356   2.374   2.449   2.497   2.530   2.457   2.425   2.430   2.387   2.395   2.354   2.356   2.336
    90.00    2.380   2.389   2.348   2.385   2.366   2.361   2.463   2.468   2.420   2.401   2.388   2.360   2.393   2.440   2.414   2.435   2.478   2.464   2.405   2.403   2.443   2.443   2.490   2.435   2.413   2.411   2.407   2.394   2.436   2.336   2.364
    85.17    2.410   2.364   2.323   2.348   2.404   2.428   2.404   2.430   2.423   2.377   2.373   2.358   2.438   2.421   2.441   2.463   2.482   2.463   2.471   2.432   2.415   2.474   2.481   2.439   2.428   2.411   2.361   2.410   2.430   2.377   2.405
    80.33    2.351   2.341   2.345   2.338   2.340   2.383   2.402   2.436   2.393   2.407   2.387   2.397   2.448   2.440   2.464   2.468   2.481   2.510   2.469   2.455   2.369   2.415   2.474   2.426   2.437   2.416   2.411   2.471   2.418   2.417   2.382
    75.50    2.384   2.372   2.360   2.296   2.316   2.339   2.370   2.407   2.413   2.409   2.445   2.428   2.473   2.419   2.447   2.452   2.501   2.560   2.538   2.526   2.490   2.464   2.450   2.505   2.439   2.354   2.364   2.442   2.442   2.470   2.430
    70.67    2.390   2.377   2.348   2.354   2.372   2.367   2.345   2.396   2.362   2.450   2.448   2.483   2.463   2.452   2.458   2.456   2.514   2.569   2.572   2.516   2.510   2.439   2.526   2.518   2.449   2.380   2.336   2.453   2.435   2.444   2.455
    65.83    2.460   2.425   2.358   2.353   2.370   2.374   2.411   2.423   2.437   2.447   2.487   2.494   2.512   2.463   2.396   2.427   2.493   2.481   2.550   2.551   2.490   2.451   2.421   2.445   2.451   2.393   2.408   2.446   2.452   2.471   2.440
    61.00    2.469   2.440   2.393   2.400   2.428   2.475   2.498   2.499   2.519   2.486   2.503   2.444   2.421   2.415   2.432   2.440   2.471   2.488   2.522   2.551   2.440   2.432   2.423   2.430   2.443   2.469   2.437   2.480   2.502   2.474   2.474
    56.17    2.437   2.423   2.470   2.449   2.472   2.468   2.517   2.508   2.474   2.428   2.476   2.471   2.417   2.447   2.436   2.458   2.418   2.422   2.470   2.436   2.423   2.429   2.489   2.427   2.459   2.462   2.478   2.475   2.484   2.467   2.466
    51.33    2.463   2.443   2.481   2.480   2.531   2.522   2.500   2.471   2.434   2.414   2.446   2.435   2.465   2.444   2.450   2.465   2.441   2.419   2.441   2.395   2.419   2.473   2.447   2.438   2.514   2.430   2.442   2.437   2.485   2.518   2.532
    46.50    2.420   2.438   2.507   2.520   2.508   2.497   2.509   2.533   2.501   2.456   2.440   2.421   2.428   2.430   2.417   2.436   2.461   2.447   2.430   2.434   2.458   2.473   2.482   2.489   2.515   2.429   2.379   2.421   2.497   2.548   2.577
    41.67    2.468   2.524   2.526   2.511   2.511   2.525   2.537   2.502   2.521   2.489   2.450   2.432   2.431   2.491   2.437   2.489   2.475   2.404   2.398   2.457   2.466   2.479   2.473   2.490   2.460   2.451   2.402   2.470   2.533   2.534   2.552
    36.83    2.509   2.549   2.543   2.587   2.564   2.550   2.552   2.531   2.516   2.458   2.459   2.410   2.458   2.498   2.474   2.435   2.422   2.397   2.424   2.470   2.508   2.500   2.433   2.453   2.428   2.476   2.439   2.457   2.522   2.549   2.517
    32.00    2.454   2.497   2.538   2.554   2.559   2.587   2.504   2.510   2.514   2.438   2.468   2.440   2.411   2.401   2.443   2.516   2.470   2.457   2.397   2.516   2.502   2.479   2.387   2.425   2.412   2.421   2.500   2.442   2.485   2.522   2.551
    27.17    2.439   2.472   2.523   2.515   2.541   2.549   2.591   2.538   2.507   2.475   2.452   2.428   2.416   2.431   2.420   2.476   2.448   2.441   2.418   2.468   2.404   2.390   2.366   2.329   2.367   2.430   2.432   2.476   2.541   2.518   2.512
    22.33    2.395   2.387   2.407   2.455   2.487   2.548   2.564   2.534   2.518   2.489   2.433   2.415   2.452   2.454   2.442   2.423   2.416   2.453   2.417   2.407   2.389   2.380   2.334   2.313   2.310   2.373   2.409   2.449   2.520   2.493   2.502
    17.50    2.436   2.383   2.450   2.426   2.497   2.486   2.497   2.501   2.447   2.464   2.427   2.420   2.406   2.402   2.411   2.420   2.401   2.453   2.397   2.385   2.362   2.278   2.311   2.327   2.330   2.320   2.351   2.434   2.477   2.503   2.501

   Height   Standard deviation at grid points for the v component:
   162.50    1.949   1.949   1.949   1.949   1.949   1.949   1.949   1.949   1.949   1.949   1.949   1.949   1.949   1.949   1.949   1.949   1.949   1.949   1.949   1.949   1.949   1.949   1.949   1.949   1.949   1.949   1.949   1.949   1.949   1.949   1.949
   157.67    1.949   1.949   1.949   1.949   1.949   1.949   1.949   1.949   1.949   1.949   1.949   1.949   1.949   1.949   1.949   1.949   1.949   1.949   1.949   1.949   1.949   1.949   1.949   1.949   1.949   1.949   1.949   1.949   1.949   1.949   1.949
   152.83    1.949   1.949   1.949   1.949   1.949   1.949   1.949   1.949   1.949   1.949   1.949   1.949   1.949   1.949   1.949   1.949   1.949   1.949   1.949   1.949   1.949   1.949   1.949   1.949   1.949   1.949   1.949   1.949   1.949   1.949   1.949
   148.00    1.949   1.949   1.949   1.949   1.949   1.949   1.949   1.949   1.949   1.949   1.949   1.949   1.949   1.949   1.949   1.949   1.949   1.949   1.949   1.949   1.949   1.949   1.949   1.949   1.949   1.949   1.949   1.949   1.949   1.949   1.949
   143.17    1.949   1.949   1.949   1.949   1.949   1.949   1.949   1.949   1.949   1.949   1.949   1.949   1.949   1.949   1.949   1.949   1.949   1.949   1.949   1.949   1.949   1.949   1.949   1.949   1.949   1.949   1.949   1.949   1.949   1.949   1.949
   138.33    1.949   1.949   1.949   1.949   1.949   1.949   1.949   1.949   1.949   1.949   1.949   1.949   1.949   1.949   1.949   1.949   1.949   1.949   1.949   1.949   1.949   1.949   1.949   1.949   1.949   1.949   1.949   1.949   1.949   1.949   1.949
   133.50    1.949   1.949   1.949   1.949   1.949   1.949   1.949   1.949   1.949   1.949   1.949   1.949   1.949   1.949   1.949   1.949   1.949   1.949   1.949   1.949   1.949   1.949   1.949   1.949   1.949   1.949   1.949   1.949   1.949   1.949   1.949
   128.67    1.949   1.949   1.949   1.949   1.949   1.949   1.949   1.949   1.949   1.949   1.949   1.949   1.949   1.949   1.949   1.949   1.949   1.949   1.949   1.949   1.949   1.949   1.949   1.949   1.949   1.949   1.949   1.949   1.949   1.949   1.949
   123.83    1.949   1.949   1.949   1.949   1.949   1.949   1.949   1.949   1.949   1.949   1.949   1.949   1.949   1.949   1.949   1.949   1.949   1.949   1.949   1.949   1.949   1.949   1.949   1.949   1.949   1.949   1.949   1.949   1.949   1.949   1.949
   119.00    1.949   1.949   1.949   1.949   1.949   1.949   1.949   1.949   1.949   1.949   1.949   1.949   1.949   1.949   1.949   1.949   1.949   1.949   1.949   1.949   1.949   1.949   1.949   1.949   1.949   1.949   1.949   1.949   1.949   1.949   1.949
   114.17    1.949   1.949   1.949   1.949   1.949   1.949   1.949   1.949   1.949   1.949   1.949   1.949   1.949   1.949   1.949   1.949   1.949   1.949   1.949   1.949   1.949   1.949   1.949   1.949   1.949   1.949   1.949   1.949   1.949   1.949   1.949
   109.33    1.949   1.949   1.949   1.949   1.949   1.949   1.949   1.949   1.949   1.949   1.949   1.949   1.949   1.949   1.949   1.949   1.949   1.949   1.949   1.949   1.949   1.949   1.949   1.949   1.949   1.949   1.949   1.949   1.949   1.949   1.949
   104.50    1.949   1.949   1.949   1.949   1.949   1.949   1.949   1.949   1.949   1.949   1.949   1.949   1.949   1.949   1.949   1.949   1.949   1.949   1.949   1.949   1.949   1.949   1.949   1.949   1.949   1.949   1.949   1.949   1.949   1.949   1.949
    99.67    1.949   1.949   1.949   1.949   1.949   1.949   1.949   1.949   1.949   1.949   1.949   1.949   1.949   1.949   1.949   1.949   1.949   1.949   1.949   1.949   1.949   1.949   1.949   1.949   1.949   1.949   1.949   1.949   1.949   1.949   1.949
    94.83    1.949   1.949   1.949   1.949   1.949   1.949   1.949   1.949   1.949   1.949   1.949   1.949   1.949   1.949   1.949   1.949   1.949   1.949   1.949   1.949   1.949   1.949   1.949   1.949   1.949   1.949   1.949   1.949   1.949   1.949   1.949
    90.00    1.949   1.949   1.949   1.949   1.949   1.949   1.949   1.949   1.949   1.949   1.949   1.949   1.949   1.949   1.949   1.949   1.949   1.949   1.949   1.949   1.949   1.949   1.949   1.949   1.949   1.949   1.949   1.949   1.949   1.949   1.949
    85.17    1.949   1.949   1.949   1.949   1.949   1.949   1.949   1.949   1.949   1.949   1.949   1.949   1.949   1.949   1.949   1.949   1.949   1.949   1.949   1.949   1.949   1.949   1.949   1.949   1.949   1.949   1.949   1.949   1.949   1.949   1.949
    80.33    1.949   1.949   1.949   1.949   1.949   1.949   1.949   1.949   1.949   1.949   1.949   1.949   1.949   1.949   1.949   1.949   1.949   1.949   1.949   1.949   1.949   1.949   1.949   1.949   1.949   1.949   1.949   1.949   1.949   1.949   1.949
    75.50    1.949   1.949   1.949   1.949   1.949   1.949   1.949   1.949   1.949   1.949   1.949   1.949   1.949   1.949   1.949   1.949   1.949   1.949   1.949   1.949   1.949   1.949   1.949   1.949   1.949   1.949   1.949   1.949   1.949   1.949   1.949
    70.67    1.949   1.949   1.949   1.949   1.949   1.949   1.949   1.949   1.949   1.949   1.949   1.949   1.949   1.949   1.949   1.949   1.949   1.949   1.949   1.949   1.949   1.949   1.949   1.949   1.949   1.949   1.949   1.949   1.949   1.949   1.949
    65.83    1.949   1.949   1.949   1.949   1.949   1.949   1.949   1.949   1.949   1.949   1.949   1.949   1.949   1.949   1.949   1.949   1.949   1.949   1.949   1.949   1.949   1.949   1.949   1.949   1.949   1.949   1.949   1.949   1.949   1.949   1.949
    61.00    1.949   1.949   1.949   1.949   1.949   1.949   1.949   1.949   1.949   1.949   1.949   1.949   1.949   1.949   1.949   1.949   1.949   1.949   1.949   1.949   1.949   1.949   1.949   1.949   1.949   1.949   1.949   1.949   1.949   1.949   1.949
    56.17    1.949   1.949   1.949   1.949   1.949   1.949   1.949   1.949   1.949   1.949   1.949   1.949   1.949   1.949   1.949   1.949   1.949   1.949   1.949   1.949   1.949   1.949   1.949   1.949   1.949   1.949   1.949   1.949   1.949   1.949   1.949
    51.33    1.949   1.949   1.949   1.949   1.949   1.949   1.949   1.949   1.949   1.949   1.949   1.949   1.949   1.949   1.949   1.949   1.949   1.949   1.949   1.949   1.949   1.949   1.949   1.949   1.949   1.949   1.949   1.949   1.949   1.949   1.949
    46.50    1.949   1.949   1.949   1.949   1.949   1.949   1.949   1.949   1.949   1.949   1.949   1.949   1.949   1.949   1.949   1.949   1.949   1.949   1.949   1.949   1.949   1.949   1.949   1.949   1.949   1.949   1.949   1.949   1.949   1.949   1.949
    41.67    1.949   1.949   1.949   1.949   1.949   1.949   1.949   1.949   1.949   1.949   1.949   1.949   1.949   1.949   1.949   1.949   1.949   1.949   1.949   1.949   1.949   1.949   1.949   1.949   1.949   1.949   1.949   1.949   1.949   1.949   1.949
    36.83    1.949   1.949   1.949   1.949   1.949   1.949   1.949   1.949   1.949   1.949   1.949   1.949   1.949   1.949   1.949   1.949   1.949   1.949   1.949   1.949   1.949   1.949   1.949   1.949   1.949   1.949   1.949   1.949   1.949   1.949   1.949
    32.00    1.949   1.949   1.949   1.949   1.949   1.949   1.949   1.949   1.949   1.949   1.949   1.949   1.949   1.949   1.949   1.949   1.949   1.949   1.949   1.949   1.949   1.949   1.949   1.949   1.949   1.949   1.949   1.949   1.949   1.949   1.949
    27.17    1.949   1.949   1.949   1.949   1.949   1.949   1.949   1.949   1.949   1.949   1.949   1.949   1.949   1.949   1.949   1.949   1.949   1.949   1.949   1.949   1.949   1.949   1.949   1.949   1.949   1.949   1.949   1.949   1.949   1.949   1.949
    22.33    1.949   1.949   1.949   1.949   1.949   1.949   1.949   1.949   1.949   1.949   1.949   1.949   1.949   1.949   1.949   1.949   1.949   1.949   1.949   1.949   1.949   1.949   1.949   1.949   1.949   1.949   1.949   1.949   1.949   1.949   1.949
    17.50    1.949   1.949   1.949   1.949   1.949   1.949   1.949   1.949   1.949   1.949   1.949   1.949   1.949   1.949   1.949   1.949   1.949   1.949   1.949   1.949   1.949   1.949   1.949   1.949   1.949   1.949   1.949   1.949   1.949   1.949   1.949

   Height   Standard deviation at grid points for the w component:
   162.50    1.203   1.203   1.203   1.203   1.203   1.203   1.203   1.203   1.203   1.203   1.203   1.203   1.203   1.203   1.203   1.203   1.203   1.203   1.203   1.203   1.203   1.203   1.203   1.203   1.203   1.203   1.203   1.203   1.203   1.203   1.203
   157.67    1.203   1.203   1.203   1.203   1.203   1.203   1.203   1.203   1.203   1.203   1.203   1.203   1.203   1.203   1.203   1.203   1.203   1.203   1.203   1.203   1.203   1.203   1.203   1.203   1.203   1.203   1.203   1.203   1.203   1.203   1.203
   152.83    1.203   1.203   1.203   1.203   1.203   1.203   1.203   1.203   1.203   1.203   1.203   1.203   1.203   1.203   1.203   1.203   1.203   1.203   1.203   1.203   1.203   1.203   1.203   1.203   1.203   1.203   1.203   1.203   1.203   1.203   1.203
   148.00    1.203   1.203   1.203   1.203   1.203   1.203   1.203   1.203   1.203   1.203   1.203   1.203   1.203   1.203   1.203   1.203   1.203   1.203   1.203   1.203   1.203   1.203   1.203   1.203   1.203   1.203   1.203   1.203   1.203   1.203   1.203
   143.17    1.203   1.203   1.203   1.203   1.203   1.203   1.203   1.203   1.203   1.203   1.203   1.203   1.203   1.203   1.203   1.203   1.203   1.203   1.203   1.203   1.203   1.203   1.203   1.203   1.203   1.203   1.203   1.203   1.203   1.203   1.203
   138.33    1.203   1.203   1.203   1.203   1.203   1.203   1.203   1.203   1.203   1.203   1.203   1.203   1.203   1.203   1.203   1.203   1.203   1.203   1.203   1.203   1.203   1.203   1.203   1.203   1.203   1.203   1.203   1.203   1.203   1.203   1.203
   133.50    1.203   1.203   1.203   1.203   1.203   1.203   1.203   1.203   1.203   1.203   1.203   1.203   1.203   1.203   1.203   1.203   1.203   1.203   1.203   1.203   1.203   1.203   1.203   1.203   1.203   1.203   1.203   1.203   1.203   1.203   1.203
   128.67    1.203   1.203   1.203   1.203   1.203   1.203   1.203   1.203   1.203   1.203   1.203   1.203   1.203   1.203   1.203   1.203   1.203   1.203   1.203   1.203   1.203   1.203   1.203   1.203   1.203   1.203   1.203   1.203   1.203   1.203   1.203
   123.83    1.203   1.203   1.203   1.203   1.203   1.203   1.203   1.203   1.203   1.203   1.203   1.203   1.203   1.203   1.203   1.203   1.203   1.203   1.203   1.203   1.203   1.203   1.203   1.203   1.203   1.203   1.203   1.203   1.203   1.203   1.203
   119.00    1.203   1.203   1.203   1.203   1.203   1.203   1.203   1.203   1.203   1.203   1.203   1.203   1.203   1.203   1.203   1.203   1.203   1.203   1.203   1.203   1.203   1.203   1.203   1.203   1.203   1.203   1.203   1.203   1.203   1.203   1.203
   114.17    1.203   1.203   1.203   1.203   1.203   1.203   1.203   1.203   1.203   1.203   1.203   1.203   1.203   1.203   1.203   1.203   1.203   1.203   1.203   1.203   1.203   1.203   1.203   1.203   1.203   1.203   1.203   1.203   1.203   1.203   1.203
   109.33    1.203   1.203   1.203   1.203   1.203   1.203   1.203   1.203   1.203   1.203   1.203   1.203   1.203   1.203   1.203   1.203   1.203   1.203   1.203   1.203   1.203   1.203   1.203   1.203   1.203   1.203   1.203   1.203   1.203   1.203   1.203
   104.50    1.203   1.203   1.203   1.203   1.203   1.203   1.203   1.203   1.203   1.203   1.203   1.203   1.203   1.203   1.203   1.203   1.203   1.203   1.203   1.203   1.203   1.203   1.203   1.203   1.203   1.203   1.203   1.203   1.203   1.203   1.203
    99.67    1.203   1.203   1.203   1.203   1.203   1.203   1.203   1.203   1.203   1.203   1.203   1.203   1.203   1.203   1.203   1.203   1.203   1.203   1.203   1.203   1.203   1.203   1.203   1.203   1.203   1.203   1.203   1.203   1.203   1.203   1.203
    94.83    1.203   1.203   1.203   1.203   1.203   1.203   1.203   1.203   1.203   1.203   1.203   1.203   1.203   1.203   1.203   1.203   1.203   1.203   1.203   1.203   1.203   1.203   1.203   1.203   1.203   1.203   1.203   1.203   1.203   1.203   1.203
    90.00    1.203   1.203   1.203   1.203   1.203   1.203   1.203   1.203   1.203   1.203   1.203   1.203   1.203   1.203   1.203   1.203   1.203   1.203   1.203   1.203   1.203   1.203   1.203   1.203   1.203   1.203   1.203   1.203   1.203   1.203   1.203
    85.17    1.203   1.203   1.203   1.203   1.203   1.203   1.203   1.203   1.203   1.203   1.203   1.203   1.203   1.203   1.203   1.203   1.203   1.203   1.203   1.203   1.203   1.203   1.203   1.203   1.203   1.203   1.203   1.203   1.203   1.203   1.203
    80.33    1.203   1.203   1.203   1.203   1.203   1.203   1.203   1.203   1.203   1.203   1.203   1.203   1.203   1.203   1.203   1.203   1.203   1.203   1.203   1.203   1.203   1.203   1.203   1.203   1.203   1.203   1.203   1.203   1.203   1.203   1.203
    75.50    1.203   1.203   1.203   1.203   1.203   1.203   1.203   1.203   1.203   1.203   1.203   1.203   1.203   1.203   1.203   1.203   1.203   1.203   1.203   1.203   1.203   1.203   1.203   1.203   1.203   1.203   1.203   1.203   1.203   1.203   1.203
    70.67    1.203   1.203   1.203   1.203   1.203   1.203   1.203   1.203   1.203   1.203   1.203   1.203   1.203   1.203   1.203   1.203   1.203   1.203   1.203   1.203   1.203   1.203   1.203   1.203   1.203   1.203   1.203   1.203   1.203   1.203   1.203
    65.83    1.203   1.203   1.203   1.203   1.203   1.203   1.203   1.203   1.203   1.203   1.203   1.203   1.203   1.203   1.203   1.203   1.203   1.203   1.203   1.203   1.203   1.203   1.203   1.203   1.203   1.203   1.203   1.203   1.203   1.203   1.203
    61.00    1.203   1.203   1.203   1.203   1.203   1.203   1.203   1.203   1.203   1.203   1.203   1.203   1.203   1.203   1.203   1.203   1.203   1.203   1.203   1.203   1.203   1.203   1.203   1.203   1.203   1.203   1.203   1.203   1.203   1.203   1.203
    56.17    1.203   1.203   1.203   1.203   1.203   1.203   1.203   1.203   1.203   1.203   1.203   1.203   1.203   1.203   1.203   1.203   1.203   1.203   1.203   1.203   1.203   1.203   1.203   1.203   1.203   1.203   1.203   1.203   1.203   1.203   1.203
    51.33    1.203   1.203   1.203   1.203   1.203   1.203   1.203   1.203   1.203   1.203   1.203   1.203   1.203   1.203   1.203   1.203   1.203   1.203   1.203   1.203   1.203   1.203   1.203   1.203   1.203   1.203   1.203   1.203   1.203   1.203   1.203
    46.50    1.203   1.203   1.203   1.203   1.203   1.203   1.203   1.203   1.203   1.203   1.203   1.203   1.203   1.203   1.203   1.203   1.203   1.203   1.203   1.203   1.203   1.203   1.203   1.203   1.203   1.203   1.203   1.203   1.203   1.203   1.203
    41.67    1.203   1.203   1.203   1.203   1.203   1.203   1.203   1.203   1.203   1.203   1.203   1.203   1.203   1.203   1.203   1.203   1.203   1.203   1.203   1.203   1.203   1.203   1.203   1.203   1.203   1.203   1.203   1.203   1.203   1.203   1.203
    36.83    1.203   1.203   1.203   1.203   1.203   1.203   1.203   1.203   1.203   1.203   1.203   1.203   1.203   1.203   1.203   1.203   1.203   1.203   1.203   1.203   1.203   1.203   1.203   1.203   1.203   1.203   1.203   1.203   1.203   1.203   1.203
    32.00    1.203   1.203   1.203   1.203   1.203   1.203   1.203   1.203   1.203   1.203   1.203   1.203   1.203   1.203   1.203   1.203   1.203   1.203   1.203   1.203   1.203   1.203   1.203   1.203   1.203   1.203   1.203   1.203   1.203   1.203   1.203
    27.17    1.203   1.203   1.203   1.203   1.203   1.203   1.203   1.203   1.203   1.203   1.203   1.203   1.203   1.203   1.203   1.203   1.203   1.203   1.203   1.203   1.203   1.203   1.203   1.203   1.203   1.203   1.203   1.203   1.203   1.203   1.203
    22.33    1.203   1.203   1.203   1.203   1.203   1.203   1.203   1.203   1.203   1.203   1.203   1.203   1.203   1.203   1.203   1.203   1.203   1.203   1.203   1.203   1.203   1.203   1.203   1.203   1.203   1.203   1.203   1.203   1.203   1.203   1.203
    17.50    1.203   1.203   1.203   1.203   1.203   1.203   1.203   1.203   1.203   1.203   1.203   1.203   1.203   1.203   1.203   1.203   1.203   1.203   1.203   1.203   1.203   1.203   1.203   1.203   1.203   1.203   1.203   1.203   1.203   1.203   1.203

   Mean standard deviation across all grid points:
      u component:    2.416 m/s
      v component:    1.949 m/s
      w component:    1.203 m/s


U-component (X) statistics from the interpolated hub point:

   Mean =  16.0000 m/s
   TI   =  15.2210 %


Processing complete.  487.86 CPU seconds used.
