
This summary file was generated by TurbSim (v2.00.07a-bjj, 14-Jun-2016) on 07-Jun-2023 at 16:24:51.


Runtime Options:

     13428  Random seed #1
    RANLUX  Type of random number generator
         F  Output binary HH turbulence parameters?
         F  Output formatted turbulence parameters?
         F  Output AeroDyn HH files?
         T  Output AeroDyn FF files?
         F  Output BLADED FF files?
         T  Output tower data?
         F  Output formatted FF files?
         F  Output coherent turbulence time step file?
         F  Clockwise rotation when looking downwind?
 0 -  NONE  IEC turbulence models scaled to exact specified standard deviation


Turbine/Model Specifications:

        31  Vertical grid-point matrix dimension
        31  Horizontal grid-point matrix dimension
     0.050  Time step [seconds]
   630.000  Analysis time [seconds]
   100.000  Usable output time [seconds]
    90.000  Hub height [m]
   145.000  Grid height [m]
   145.000  Grid width [m]
     0.000  Vertical flow angle [degrees]
     0.000  Horizontal flow angle [degrees]


Meteorological Boundary Conditions:

    IECKAI  IEC Kaimal spectral model
         1  IEC standard: IEC 61400-1 Ed. 3: 2005
         B  IEC turbulence characteristic
       NTM  IEC Normal Turbulence Model
       N/A  IEC Extreme Turbulence Model (ETM) "c" parameter [m/s]
       PL   Wind profile type
    90.000  Reference height [m]
    16.000  Reference wind speed [m/s]
       N/A  Jet height [m]
     0.200  Power law exponent
     0.030  Surface roughness length [m]


Non-IEC Meteorological Boundary Conditions:

       N/A  Site latitude [degrees]
       N/A  Gradient Richardson number
       N/A  Friction or shear velocity [m/s]
       N/A  Mixing layer depth [m]
       N/A  Mean hub u'w' Reynolds stress
       N/A  Mean hub u'v' Reynolds stress
       N/A  Mean hub v'w' Reynolds stress


Spatial Coherence Models:

       IEC  u-component coherence model
      NONE  v-component coherence model
      NONE  w-component coherence model
(   12.000, 0.353E-03)  u-component coherence parameters
                   N/A  v-component coherence parameters
                   N/A  w-component coherence parameters
       N/A  Coherence exponent


You have requested that the following file(s) be generated:

   90m_16mps.bts (AeroDyn/TurbSim full-field wind file)


Turbulence Simulation Scaling Parameter Summary:

   Turbulence model used                            =  IEC Kaimal
   Turbulence characteristic                        =  B
   IEC turbulence type                              =  Normal Turbulence Model
   IEC standard                                     =  IEC 61400-1 Ed. 3: 2005
   Mean wind speed at hub height                    =   16.000 m/s
   Expected value of turbulence intensity at 15 m/s =   14.000%
   Characteristic value of standard deviation       =    2.464 m/s
   Turbulence scale                                 =   42.000 m
   u-component integral scale                       =  340.200 m
   Coherency scale                                  =  340.200 m
   Characteristic value of hub turbulence intensity =   15.400%
   Gradient Richardson number                       =    0.000

   Wind profile type                                =  Power law
   Power law exponent                               =    0.200
   Mean shear across rotor disk                     =    0.045 (m/s)/m
   Assumed rotor diameter                           =  145.000 m
   Surface roughness length                         =    0.030 m

   Nyquist frequency of turbulent wind field        =   10.000 Hz

   Number of time steps in the FFT                  =    12600
   Number of time steps output                      =     2182
   Number of points simulated                       =      964


Mean Flow Angles:

   Vertical   =   0.0 degrees
   Horizontal =   0.0 degrees

Mean Wind Speed Profile:

   Height    Wind Speed   Horizontal Angle  Vertical Angle  U-comp (X)   V-comp (Y)   W-comp (Z)
     (m)        (m/s)         (degrees)       (degrees)       (m/s)        (m/s)        (m/s)   
   ------    ----------   ----------------  --------------  ----------   ----------   ----------
    162.5       18.01            0.00            0.00         18.01         0.00         0.00
    157.7       17.90            0.00            0.00         17.90         0.00         0.00
    152.8       17.79            0.00            0.00         17.79         0.00         0.00
    148.0       17.67            0.00            0.00         17.67         0.00         0.00
    143.2       17.56            0.00            0.00         17.56         0.00         0.00
    138.3       17.44            0.00            0.00         17.44         0.00         0.00
    133.5       17.31            0.00            0.00         17.31         0.00         0.00
    128.7       17.19            0.00            0.00         17.19         0.00         0.00
    123.8       17.05            0.00            0.00         17.05         0.00         0.00
    119.0       16.92            0.00            0.00         16.92         0.00         0.00
    114.2       16.78            0.00            0.00         16.78         0.00         0.00
    109.3       16.63            0.00            0.00         16.63         0.00         0.00
    104.5       16.49            0.00            0.00         16.49         0.00         0.00
     99.7       16.33            0.00            0.00         16.33         0.00         0.00
     94.8       16.17            0.00            0.00         16.17         0.00         0.00
     90.0       16.00            0.00            0.00         16.00         0.00         0.00
     85.2       15.82            0.00            0.00         15.82         0.00         0.00
     80.3       15.64            0.00            0.00         15.64         0.00         0.00
     75.5       15.45            0.00            0.00         15.45         0.00         0.00
     70.7       15.24            0.00            0.00         15.24         0.00         0.00
     65.8       15.03            0.00            0.00         15.03         0.00         0.00
     61.0       14.80            0.00            0.00         14.80         0.00         0.00
     56.2       14.56            0.00            0.00         14.56         0.00         0.00
     51.3       14.30            0.00            0.00         14.30         0.00         0.00
     46.5       14.02            0.00            0.00         14.02         0.00         0.00
     41.7       13.72            0.00            0.00         13.72         0.00         0.00
     36.8       13.38            0.00            0.00         13.38         0.00         0.00
     32.0       13.01            0.00            0.00         13.01         0.00         0.00
     27.2       12.59            0.00            0.00         12.59         0.00         0.00
     22.3       12.11            0.00            0.00         12.11         0.00         0.00
     17.5       11.53            0.00            0.00         11.53         0.00         0.00
     12.7       10.81            0.00            0.00         10.81         0.00         0.00
      7.8        9.82            0.00            0.00          9.82         0.00         0.00
      3.0        8.10            0.00            0.00          8.10         0.00         0.00


Harvested Random Seeds after Generation of the Random Numbers:

    169290450 K 1
            0 K 2


Hub-Height Simulated Turbulence Statistical Summary:

   Type of Wind        Min (m/s)   Mean (m/s)    Max (m/s)  Sigma (m/s)       TI (%)
   ----------------    ---------   ----------    ---------  -----------       ------
   Longitudinal (u)         9.18        16.00        22.56        2.102       13.136
   Lateral (v)             -7.03        -0.00         6.44        1.932       12.073
   Vertical (w)            -4.35         0.00         4.11        1.201        7.503
   U component              9.18        16.00        22.56        2.102       13.136
   V component             -7.03        -0.00         6.44        1.932       12.073
   W component             -4.35         0.00         4.11        1.201        7.503
   Horizontal (U&V)         9.38        16.12        22.57        2.088       12.955
   Total                    9.39        16.16        22.59        2.086       12.903

                       Min Reynolds     Mean Reynolds    Max Reynolds    Correlation
   Product             Stress (m/s)^2   Stress (m/s)^2   Stress (m/s)^2  Coefficient
   ----------------    --------------   --------------   --------------  -----------
   u'w'                    -14.963             0.149            14.930         0.059
   u'v'                    -24.663             0.385            28.807         0.095
   v'w'                    -13.717             0.277            20.557         0.119


   Friction Velocity (Ustar)  =      0.386 m/s
   Maximum Instantaneous TKE  =     32.979 (m/s)^2
   Maximum Instantaneous CTKE =     15.088 (m/s)^2


Grid Point Variance Summary:

   Y-coord  -72.50  -67.67  -62.83  -58.00  -53.17  -48.33  -43.50  -38.67  -33.83  -29.00  -24.17  -19.33  -14.50   -9.67   -4.83    0.00    4.83    9.67   14.50   19.33   24.17   29.00   33.83   38.67   43.50   48.33   53.17   58.00   62.83   67.67   72.50

   Height   Standard deviation at grid points for the u component:
   162.50    2.226   2.183   2.292   2.210   2.244   2.323   2.281   2.309   2.402   2.389   2.433   2.442   2.379   2.294   2.415   2.396   2.363   2.307   2.249   2.266   2.379   2.341   2.377   2.494   2.403   2.456   2.440   2.427   2.335   2.456   2.580
   157.67    2.261   2.192   2.209   2.217   2.216   2.215   2.306   2.228   2.337   2.310   2.304   2.307   2.333   2.396   2.360   2.378   2.327   2.268   2.269   2.284   2.335   2.299   2.415   2.409   2.453   2.548   2.503   2.344   2.336   2.474   2.584
   152.83    2.238   2.177   2.213   2.206   2.248   2.140   2.234   2.308   2.338   2.253   2.356   2.272   2.279   2.472   2.355   2.304   2.294   2.243   2.208   2.379   2.313   2.392   2.431   2.468   2.466   2.510   2.450   2.522   2.390   2.538   2.663
   148.00    2.288   2.257   2.313   2.308   2.161   2.166   2.186   2.176   2.354   2.396   2.294   2.363   2.448   2.446   2.465   2.407   2.336   2.214   2.304   2.415   2.291   2.467   2.379   2.389   2.447   2.502   2.502   2.472   2.653   2.552   2.624
   143.17    2.173   2.278   2.311   2.165   2.194   2.270   2.189   2.259   2.283   2.351   2.375   2.391   2.505   2.605   2.412   2.431   2.290   2.336   2.324   2.390   2.417   2.413   2.362   2.441   2.497   2.575   2.368   2.393   2.561   2.593   2.456
   138.33    2.169   2.258   2.322   2.150   2.211   2.199   2.295   2.254   2.391   2.434   2.527   2.529   2.520   2.522   2.442   2.452   2.341   2.335   2.350   2.346   2.274   2.376   2.412   2.356   2.390   2.476   2.342   2.336   2.419   2.415   2.417
   133.50    2.115   2.211   2.226   2.139   2.169   2.334   2.249   2.291   2.348   2.515   2.480   2.588   2.401   2.415   2.387   2.339   2.286   2.361   2.269   2.161   2.163   2.223   2.338   2.408   2.393   2.476   2.362   2.361   2.356   2.271   2.229
   128.67    2.195   2.186   2.158   2.093   2.109   2.205   2.307   2.308   2.410   2.415   2.477   2.506   2.418   2.476   2.394   2.303   2.274   2.299   2.234   2.144   2.224   2.222   2.302   2.356   2.464   2.438   2.329   2.293   2.329   2.228   2.244
   123.83    2.111   1.988   2.162   2.071   2.174   2.203   2.289   2.419   2.344   2.396   2.502   2.510   2.416   2.383   2.352   2.250   2.273   2.295   2.261   2.201   2.196   2.194   2.182   2.288   2.391   2.403   2.371   2.282   2.191   2.204   2.214
   119.00    2.011   2.062   2.154   2.116   2.132   2.163   2.259   2.386   2.338   2.377   2.398   2.445   2.332   2.368   2.253   2.349   2.239   2.202   2.150   2.214   2.128   2.139   2.044   2.180   2.302   2.358   2.301   2.311   2.307   2.275   2.229
   114.17    2.211   2.174   2.161   2.157   2.103   2.147   2.211   2.282   2.395   2.335   2.347   2.251   2.286   2.285   2.306   2.198   2.169   2.175   2.070   2.097   2.175   2.217   2.199   2.139   2.227   2.124   2.250   2.367   2.318   2.244   2.198
   109.33    2.353   2.275   2.212   2.165   2.047   2.088   2.203   2.308   2.300   2.244   2.193   2.090   2.109   2.166   2.093   2.180   2.171   2.175   2.186   2.137   2.021   2.119   2.070   2.094   2.101   2.187   2.200   2.324   2.308   2.239   2.175
   104.50    2.379   2.444   2.409   2.225   2.217   2.161   2.246   2.360   2.370   2.344   2.210   2.182   1.989   2.095   2.070   2.030   2.078   2.183   2.134   2.109   2.118   2.155   2.095   2.098   2.173   2.039   2.171   2.219   2.286   2.309   2.231
    99.67    2.409   2.426   2.264   2.248   2.240   2.251   2.237   2.256   2.276   2.361   2.261   2.187   2.210   2.137   2.152   2.082   2.105   2.077   2.068   2.089   2.142   2.073   2.171   2.166   2.140   2.056   2.148   2.078   2.180   2.083   2.064
    94.83    2.334   2.418   2.194   2.210   2.277   2.316   2.265   2.162   2.196   2.216   2.251   2.230   2.234   2.193   2.146   2.093   2.033   2.017   2.135   2.143   2.218   2.144   2.175   2.265   2.134   2.041   2.094   2.102   2.080   2.024   2.003
    90.00    2.427   2.384   2.321   2.410   2.496   2.345   2.289   2.277   2.211   2.244   2.240   2.344   2.350   2.258   2.134   2.102   2.122   2.155   2.201   2.147   2.214   2.256   2.180   2.256   2.183   2.098   2.034   2.015   2.020   1.956   2.020
    85.17    2.366   2.474   2.474   2.435   2.532   2.426   2.398   2.240   2.283   2.327   2.300   2.409   2.450   2.321   2.177   2.158   2.103   2.207   2.220   2.305   2.260   2.247   2.226   2.194   2.296   2.046   1.982   1.963   1.978   2.045   2.057
    80.33    2.307   2.428   2.382   2.417   2.479   2.407   2.375   2.411   2.252   2.289   2.311   2.314   2.435   2.357   2.335   2.186   2.194   2.268   2.210   2.313   2.259   2.326   2.246   2.170   2.136   2.070   1.938   1.937   2.019   2.078   2.086
    75.50    2.427   2.482   2.399   2.371   2.457   2.405   2.350   2.332   2.161   2.299   2.346   2.423   2.486   2.395   2.433   2.385   2.223   2.282   2.237   2.283   2.236   2.278   2.210   2.169   2.155   2.169   2.055   1.973   1.971   2.108   2.107
    70.67    2.538   2.551   2.519   2.525   2.542   2.477   2.372   2.331   2.118   2.205   2.371   2.483   2.442   2.418   2.411   2.368   2.333   2.351   2.291   2.295   2.324   2.337   2.297   2.201   2.224   2.256   2.174   2.125   1.994   2.095   2.056
    65.83    2.587   2.504   2.515   2.503   2.571   2.442   2.434   2.263   2.216   2.331   2.364   2.424   2.445   2.414   2.355   2.402   2.327   2.270   2.447   2.374   2.425   2.423   2.273   2.291   2.272   2.267   2.049   2.042   2.009   2.082   2.026
    61.00    2.546   2.576   2.467   2.423   2.454   2.520   2.377   2.358   2.297   2.315   2.246   2.382   2.405   2.407   2.410   2.380   2.408   2.362   2.436   2.420   2.387   2.369   2.178   2.202   2.201   2.077   2.124   2.112   2.057   1.990   1.957
    56.17    2.465   2.577   2.534   2.540   2.424   2.477   2.440   2.330   2.337   2.363   2.233   2.302   2.362   2.397   2.407   2.360   2.411   2.449   2.473   2.394   2.332   2.251   2.252   2.133   2.165   2.196   2.176   2.104   2.037   2.041   2.049
    51.33    2.385   2.514   2.536   2.489   2.431   2.440   2.447   2.474   2.414   2.394   2.259   2.390   2.412   2.365   2.406   2.297   2.438   2.363   2.336   2.330   2.385   2.212   2.250   2.237   2.197   2.256   2.226   2.076   2.181   2.122   2.110
    46.50    2.417   2.453   2.475   2.554   2.462   2.384   2.455   2.437   2.419   2.463   2.366   2.410   2.465   2.458   2.376   2.349   2.319   2.319   2.270   2.253   2.201   2.279   2.242   2.229   2.169   2.255   2.199   2.117   2.189   2.126   2.112
    41.67    2.347   2.407   2.560   2.550   2.597   2.465   2.430   2.346   2.455   2.404   2.447   2.471   2.527   2.507   2.398   2.328   2.215   2.251   2.271   2.203   2.301   2.250   2.183   2.233   2.120   2.185   2.130   2.145   2.166   2.187   2.093
    36.83    2.198   2.462   2.497   2.509   2.441   2.468   2.413   2.360   2.391   2.410   2.336   2.430   2.455   2.440   2.408   2.313   2.260   2.281   2.254   2.194   2.313   2.319   2.312   2.180   2.273   2.100   2.131   2.099   2.072   2.183   2.134
    32.00    2.353   2.337   2.461   2.432   2.473   2.546   2.380   2.302   2.357   2.349   2.294   2.420   2.385   2.419   2.432   2.398   2.285   2.264   2.268   2.199   2.165   2.247   2.263   2.202   2.171   2.080   2.087   2.089   2.032   2.088   2.177
    27.17    2.341   2.400   2.495   2.465   2.536   2.539   2.437   2.356   2.320   2.442   2.407   2.367   2.449   2.454   2.362   2.330   2.311   2.174   2.132   2.198   2.182   2.233   2.227   2.191   2.121   2.183   2.158   2.182   2.120   2.106   2.074
    22.33    2.361   2.281   2.412   2.446   2.546   2.481   2.476   2.443   2.418   2.491   2.421   2.383   2.533   2.466   2.396   2.314   2.286   2.250   2.208   2.205   2.081   2.126   2.151   2.195   2.131   2.141   2.248   2.152   2.152   2.194   2.201
    17.50    2.373   2.339   2.396   2.408   2.474   2.412   2.398   2.350   2.295   2.375   2.394   2.511   2.523   2.508   2.525   2.396   2.391   2.320   2.251   2.173   2.122   2.130   2.180   2.261   2.252   2.173   2.209   2.101   2.175   2.084   2.266

   Height   Standard deviation at grid points for the v component:
   162.50    1.932   1.932   1.932   1.932   1.932   1.932   1.932   1.932   1.932   1.932   1.932   1.932   1.932   1.932   1.932   1.932   1.932   1.932   1.932   1.932   1.932   1.932   1.932   1.932   1.932   1.932   1.932   1.932   1.932   1.932   1.932
   157.67    1.932   1.932   1.932   1.932   1.932   1.932   1.932   1.932   1.932   1.932   1.932   1.932   1.932   1.932   1.932   1.932   1.932   1.932   1.932   1.932   1.932   1.932   1.932   1.932   1.932   1.932   1.932   1.932   1.932   1.932   1.932
   152.83    1.932   1.932   1.932   1.932   1.932   1.932   1.932   1.932   1.932   1.932   1.932   1.932   1.932   1.932   1.932   1.932   1.932   1.932   1.932   1.932   1.932   1.932   1.932   1.932   1.932   1.932   1.932   1.932   1.932   1.932   1.932
   148.00    1.932   1.932   1.932   1.932   1.932   1.932   1.932   1.932   1.932   1.932   1.932   1.932   1.932   1.932   1.932   1.932   1.932   1.932   1.932   1.932   1.932   1.932   1.932   1.932   1.932   1.932   1.932   1.932   1.932   1.932   1.932
   143.17    1.932   1.932   1.932   1.932   1.932   1.932   1.932   1.932   1.932   1.932   1.932   1.932   1.932   1.932   1.932   1.932   1.932   1.932   1.932   1.932   1.932   1.932   1.932   1.932   1.932   1.932   1.932   1.932   1.932   1.932   1.932
   138.33    1.932   1.932   1.932   1.932   1.932   1.932   1.932   1.932   1.932   1.932   1.932   1.932   1.932   1.932   1.932   1.932   1.932   1.932   1.932   1.932   1.932   1.932   1.932   1.932   1.932   1.932   1.932   1.932   1.932   1.932   1.932
   133.50    1.932   1.932   1.932   1.932   1.932   1.932   1.932   1.932   1.932   1.932   1.932   1.932   1.932   1.932   1.932   1.932   1.932   1.932   1.932   1.932   1.932   1.932   1.932   1.932   1.932   1.932   1.932   1.932   1.932   1.932   1.932
   128.67    1.932   1.932   1.932   1.932   1.932   1.932   1.932   1.932   1.932   1.932   1.932   1.932   1.932   1.932   1.932   1.932   1.932   1.932   1.932   1.932   1.932   1.932   1.932   1.932   1.932   1.932   1.932   1.932   1.932   1.932   1.932
   123.83    1.932   1.932   1.932   1.932   1.932   1.932   1.932   1.932   1.932   1.932   1.932   1.932   1.932   1.932   1.932   1.932   1.932   1.932   1.932   1.932   1.932   1.932   1.932   1.932   1.932   1.932   1.932   1.932   1.932   1.932   1.932
   119.00    1.932   1.932   1.932   1.932   1.932   1.932   1.932   1.932   1.932   1.932   1.932   1.932   1.932   1.932   1.932   1.932   1.932   1.932   1.932   1.932   1.932   1.932   1.932   1.932   1.932   1.932   1.932   1.932   1.932   1.932   1.932
   114.17    1.932   1.932   1.932   1.932   1.932   1.932   1.932   1.932   1.932   1.932   1.932   1.932   1.932   1.932   1.932   1.932   1.932   1.932   1.932   1.932   1.932   1.932   1.932   1.932   1.932   1.932   1.932   1.932   1.932   1.932   1.932
   109.33    1.932   1.932   1.932   1.932   1.932   1.932   1.932   1.932   1.932   1.932   1.932   1.932   1.932   1.932   1.932   1.932   1.932   1.932   1.932   1.932   1.932   1.932   1.932   1.932   1.932   1.932   1.932   1.932   1.932   1.932   1.932
   104.50    1.932   1.932   1.932   1.932   1.932   1.932   1.932   1.932   1.932   1.932   1.932   1.932   1.932   1.932   1.932   1.932   1.932   1.932   1.932   1.932   1.932   1.932   1.932   1.932   1.932   1.932   1.932   1.932   1.932   1.932   1.932
    99.67    1.932   1.932   1.932   1.932   1.932   1.932   1.932   1.932   1.932   1.932   1.932   1.932   1.932   1.932   1.932   1.932   1.932   1.932   1.932   1.932   1.932   1.932   1.932   1.932   1.932   1.932   1.932   1.932   1.932   1.932   1.932
    94.83    1.932   1.932   1.932   1.932   1.932   1.932   1.932   1.932   1.932   1.932   1.932   1.932   1.932   1.932   1.932   1.932   1.932   1.932   1.932   1.932   1.932   1.932   1.932   1.932   1.932   1.932   1.932   1.932   1.932   1.932   1.932
    90.00    1.932   1.932   1.932   1.932   1.932   1.932   1.932   1.932   1.932   1.932   1.932   1.932   1.932   1.932   1.932   1.932   1.932   1.932   1.932   1.932   1.932   1.932   1.932   1.932   1.932   1.932   1.932   1.932   1.932   1.932   1.932
    85.17    1.932   1.932   1.932   1.932   1.932   1.932   1.932   1.932   1.932   1.932   1.932   1.932   1.932   1.932   1.932   1.932   1.932   1.932   1.932   1.932   1.932   1.932   1.932   1.932   1.932   1.932   1.932   1.932   1.932   1.932   1.932
    80.33    1.932   1.932   1.932   1.932   1.932   1.932   1.932   1.932   1.932   1.932   1.932   1.932   1.932   1.932   1.932   1.932   1.932   1.932   1.932   1.932   1.932   1.932   1.932   1.932   1.932   1.932   1.932   1.932   1.932   1.932   1.932
    75.50    1.932   1.932   1.932   1.932   1.932   1.932   1.932   1.932   1.932   1.932   1.932   1.932   1.932   1.932   1.932   1.932   1.932   1.932   1.932   1.932   1.932   1.932   1.932   1.932   1.932   1.932   1.932   1.932   1.932   1.932   1.932
    70.67    1.932   1.932   1.932   1.932   1.932   1.932   1.932   1.932   1.932   1.932   1.932   1.932   1.932   1.932   1.932   1.932   1.932   1.932   1.932   1.932   1.932   1.932   1.932   1.932   1.932   1.932   1.932   1.932   1.932   1.932   1.932
    65.83    1.932   1.932   1.932   1.932   1.932   1.932   1.932   1.932   1.932   1.932   1.932   1.932   1.932   1.932   1.932   1.932   1.932   1.932   1.932   1.932   1.932   1.932   1.932   1.932   1.932   1.932   1.932   1.932   1.932   1.932   1.932
    61.00    1.932   1.932   1.932   1.932   1.932   1.932   1.932   1.932   1.932   1.932   1.932   1.932   1.932   1.932   1.932   1.932   1.932   1.932   1.932   1.932   1.932   1.932   1.932   1.932   1.932   1.932   1.932   1.932   1.932   1.932   1.932
    56.17    1.932   1.932   1.932   1.932   1.932   1.932   1.932   1.932   1.932   1.932   1.932   1.932   1.932   1.932   1.932   1.932   1.932   1.932   1.932   1.932   1.932   1.932   1.932   1.932   1.932   1.932   1.932   1.932   1.932   1.932   1.932
    51.33    1.932   1.932   1.932   1.932   1.932   1.932   1.932   1.932   1.932   1.932   1.932   1.932   1.932   1.932   1.932   1.932   1.932   1.932   1.932   1.932   1.932   1.932   1.932   1.932   1.932   1.932   1.932   1.932   1.932   1.932   1.932
    46.50    1.932   1.932   1.932   1.932   1.932   1.932   1.932   1.932   1.932   1.932   1.932   1.932   1.932   1.932   1.932   1.932   1.932   1.932   1.932   1.932   1.932   1.932   1.932   1.932   1.932   1.932   1.932   1.932   1.932   1.932   1.932
    41.67    1.932   1.932   1.932   1.932   1.932   1.932   1.932   1.932   1.932   1.932   1.932   1.932   1.932   1.932   1.932   1.932   1.932   1.932   1.932   1.932   1.932   1.932   1.932   1.932   1.932   1.932   1.932   1.932   1.932   1.932   1.932
    36.83    1.932   1.932   1.932   1.932   1.932   1.932   1.932   1.932   1.932   1.932   1.932   1.932   1.932   1.932   1.932   1.932   1.932   1.932   1.932   1.932   1.932   1.932   1.932   1.932   1.932   1.932   1.932   1.932   1.932   1.932   1.932
    32.00    1.932   1.932   1.932   1.932   1.932   1.932   1.932   1.932   1.932   1.932   1.932   1.932   1.932   1.932   1.932   1.932   1.932   1.932   1.932   1.932   1.932   1.932   1.932   1.932   1.932   1.932   1.932   1.932   1.932   1.932   1.932
    27.17    1.932   1.932   1.932   1.932   1.932   1.932   1.932   1.932   1.932   1.932   1.932   1.932   1.932   1.932   1.932   1.932   1.932   1.932   1.932   1.932   1.932   1.932   1.932   1.932   1.932   1.932   1.932   1.932   1.932   1.932   1.932
    22.33    1.932   1.932   1.932   1.932   1.932   1.932   1.932   1.932   1.932   1.932   1.932   1.932   1.932   1.932   1.932   1.932   1.932   1.932   1.932   1.932   1.932   1.932   1.932   1.932   1.932   1.932   1.932   1.932   1.932   1.932   1.932
    17.50    1.932   1.932   1.932   1.932   1.932   1.932   1.932   1.932   1.932   1.932   1.932   1.932   1.932   1.932   1.932   1.932   1.932   1.932   1.932   1.932   1.932   1.932   1.932   1.932   1.932   1.932   1.932   1.932   1.932   1.932   1.932

   Height   Standard deviation at grid points for the w component:
   162.50    1.201   1.201   1.201   1.201   1.201   1.201   1.201   1.201   1.201   1.201   1.201   1.201   1.201   1.201   1.201   1.201   1.201   1.201   1.201   1.201   1.201   1.201   1.201   1.201   1.201   1.201   1.201   1.201   1.201   1.201   1.201
   157.67    1.201   1.201   1.201   1.201   1.201   1.201   1.201   1.201   1.201   1.201   1.201   1.201   1.201   1.201   1.201   1.201   1.201   1.201   1.201   1.201   1.201   1.201   1.201   1.201   1.201   1.201   1.201   1.201   1.201   1.201   1.201
   152.83    1.201   1.201   1.201   1.201   1.201   1.201   1.201   1.201   1.201   1.201   1.201   1.201   1.201   1.201   1.201   1.201   1.201   1.201   1.201   1.201   1.201   1.201   1.201   1.201   1.201   1.201   1.201   1.201   1.201   1.201   1.201
   148.00    1.201   1.201   1.201   1.201   1.201   1.201   1.201   1.201   1.201   1.201   1.201   1.201   1.201   1.201   1.201   1.201   1.201   1.201   1.201   1.201   1.201   1.201   1.201   1.201   1.201   1.201   1.201   1.201   1.201   1.201   1.201
   143.17    1.201   1.201   1.201   1.201   1.201   1.201   1.201   1.201   1.201   1.201   1.201   1.201   1.201   1.201   1.201   1.201   1.201   1.201   1.201   1.201   1.201   1.201   1.201   1.201   1.201   1.201   1.201   1.201   1.201   1.201   1.201
   138.33    1.201   1.201   1.201   1.201   1.201   1.201   1.201   1.201   1.201   1.201   1.201   1.201   1.201   1.201   1.201   1.201   1.201   1.201   1.201   1.201   1.201   1.201   1.201   1.201   1.201   1.201   1.201   1.201   1.201   1.201   1.201
   133.50    1.201   1.201   1.201   1.201   1.201   1.201   1.201   1.201   1.201   1.201   1.201   1.201   1.201   1.201   1.201   1.201   1.201   1.201   1.201   1.201   1.201   1.201   1.201   1.201   1.201   1.201   1.201   1.201   1.201   1.201   1.201
   128.67    1.201   1.201   1.201   1.201   1.201   1.201   1.201   1.201   1.201   1.201   1.201   1.201   1.201   1.201   1.201   1.201   1.201   1.201   1.201   1.201   1.201   1.201   1.201   1.201   1.201   1.201   1.201   1.201   1.201   1.201   1.201
   123.83    1.201   1.201   1.201   1.201   1.201   1.201   1.201   1.201   1.201   1.201   1.201   1.201   1.201   1.201   1.201   1.201   1.201   1.201   1.201   1.201   1.201   1.201   1.201   1.201   1.201   1.201   1.201   1.201   1.201   1.201   1.201
   119.00    1.201   1.201   1.201   1.201   1.201   1.201   1.201   1.201   1.201   1.201   1.201   1.201   1.201   1.201   1.201   1.201   1.201   1.201   1.201   1.201   1.201   1.201   1.201   1.201   1.201   1.201   1.201   1.201   1.201   1.201   1.201
   114.17    1.201   1.201   1.201   1.201   1.201   1.201   1.201   1.201   1.201   1.201   1.201   1.201   1.201   1.201   1.201   1.201   1.201   1.201   1.201   1.201   1.201   1.201   1.201   1.201   1.201   1.201   1.201   1.201   1.201   1.201   1.201
   109.33    1.201   1.201   1.201   1.201   1.201   1.201   1.201   1.201   1.201   1.201   1.201   1.201   1.201   1.201   1.201   1.201   1.201   1.201   1.201   1.201   1.201   1.201   1.201   1.201   1.201   1.201   1.201   1.201   1.201   1.201   1.201
   104.50    1.201   1.201   1.201   1.201   1.201   1.201   1.201   1.201   1.201   1.201   1.201   1.201   1.201   1.201   1.201   1.201   1.201   1.201   1.201   1.201   1.201   1.201   1.201   1.201   1.201   1.201   1.201   1.201   1.201   1.201   1.201
    99.67    1.201   1.201   1.201   1.201   1.201   1.201   1.201   1.201   1.201   1.201   1.201   1.201   1.201   1.201   1.201   1.201   1.201   1.201   1.201   1.201   1.201   1.201   1.201   1.201   1.201   1.201   1.201   1.201   1.201   1.201   1.201
    94.83    1.201   1.201   1.201   1.201   1.201   1.201   1.201   1.201   1.201   1.201   1.201   1.201   1.201   1.201   1.201   1.201   1.201   1.201   1.201   1.201   1.201   1.201   1.201   1.201   1.201   1.201   1.201   1.201   1.201   1.201   1.201
    90.00    1.201   1.201   1.201   1.201   1.201   1.201   1.201   1.201   1.201   1.201   1.201   1.201   1.201   1.201   1.201   1.201   1.201   1.201   1.201   1.201   1.201   1.201   1.201   1.201   1.201   1.201   1.201   1.201   1.201   1.201   1.201
    85.17    1.201   1.201   1.201   1.201   1.201   1.201   1.201   1.201   1.201   1.201   1.201   1.201   1.201   1.201   1.201   1.201   1.201   1.201   1.201   1.201   1.201   1.201   1.201   1.201   1.201   1.201   1.201   1.201   1.201   1.201   1.201
    80.33    1.201   1.201   1.201   1.201   1.201   1.201   1.201   1.201   1.201   1.201   1.201   1.201   1.201   1.201   1.201   1.201   1.201   1.201   1.201   1.201   1.201   1.201   1.201   1.201   1.201   1.201   1.201   1.201   1.201   1.201   1.201
    75.50    1.201   1.201   1.201   1.201   1.201   1.201   1.201   1.201   1.201   1.201   1.201   1.201   1.201   1.201   1.201   1.201   1.201   1.201   1.201   1.201   1.201   1.201   1.201   1.201   1.201   1.201   1.201   1.201   1.201   1.201   1.201
    70.67    1.201   1.201   1.201   1.201   1.201   1.201   1.201   1.201   1.201   1.201   1.201   1.201   1.201   1.201   1.201   1.201   1.201   1.201   1.201   1.201   1.201   1.201   1.201   1.201   1.201   1.201   1.201   1.201   1.201   1.201   1.201
    65.83    1.201   1.201   1.201   1.201   1.201   1.201   1.201   1.201   1.201   1.201   1.201   1.201   1.201   1.201   1.201   1.201   1.201   1.201   1.201   1.201   1.201   1.201   1.201   1.201   1.201   1.201   1.201   1.201   1.201   1.201   1.201
    61.00    1.201   1.201   1.201   1.201   1.201   1.201   1.201   1.201   1.201   1.201   1.201   1.201   1.201   1.201   1.201   1.201   1.201   1.201   1.201   1.201   1.201   1.201   1.201   1.201   1.201   1.201   1.201   1.201   1.201   1.201   1.201
    56.17    1.201   1.201   1.201   1.201   1.201   1.201   1.201   1.201   1.201   1.201   1.201   1.201   1.201   1.201   1.201   1.201   1.201   1.201   1.201   1.201   1.201   1.201   1.201   1.201   1.201   1.201   1.201   1.201   1.201   1.201   1.201
    51.33    1.201   1.201   1.201   1.201   1.201   1.201   1.201   1.201   1.201   1.201   1.201   1.201   1.201   1.201   1.201   1.201   1.201   1.201   1.201   1.201   1.201   1.201   1.201   1.201   1.201   1.201   1.201   1.201   1.201   1.201   1.201
    46.50    1.201   1.201   1.201   1.201   1.201   1.201   1.201   1.201   1.201   1.201   1.201   1.201   1.201   1.201   1.201   1.201   1.201   1.201   1.201   1.201   1.201   1.201   1.201   1.201   1.201   1.201   1.201   1.201   1.201   1.201   1.201
    41.67    1.201   1.201   1.201   1.201   1.201   1.201   1.201   1.201   1.201   1.201   1.201   1.201   1.201   1.201   1.201   1.201   1.201   1.201   1.201   1.201   1.201   1.201   1.201   1.201   1.201   1.201   1.201   1.201   1.201   1.201   1.201
    36.83    1.201   1.201   1.201   1.201   1.201   1.201   1.201   1.201   1.201   1.201   1.201   1.201   1.201   1.201   1.201   1.201   1.201   1.201   1.201   1.201   1.201   1.201   1.201   1.201   1.201   1.201   1.201   1.201   1.201   1.201   1.201
    32.00    1.201   1.201   1.201   1.201   1.201   1.201   1.201   1.201   1.201   1.201   1.201   1.201   1.201   1.201   1.201   1.201   1.201   1.201   1.201   1.201   1.201   1.201   1.201   1.201   1.201   1.201   1.201   1.201   1.201   1.201   1.201
    27.17    1.201   1.201   1.201   1.201   1.201   1.201   1.201   1.201   1.201   1.201   1.201   1.201   1.201   1.201   1.201   1.201   1.201   1.201   1.201   1.201   1.201   1.201   1.201   1.201   1.201   1.201   1.201   1.201   1.201   1.201   1.201
    22.33    1.201   1.201   1.201   1.201   1.201   1.201   1.201   1.201   1.201   1.201   1.201   1.201   1.201   1.201   1.201   1.201   1.201   1.201   1.201   1.201   1.201   1.201   1.201   1.201   1.201   1.201   1.201   1.201   1.201   1.201   1.201
    17.50    1.201   1.201   1.201   1.201   1.201   1.201   1.201   1.201   1.201   1.201   1.201   1.201   1.201   1.201   1.201   1.201   1.201   1.201   1.201   1.201   1.201   1.201   1.201   1.201   1.201   1.201   1.201   1.201   1.201   1.201   1.201

   Mean standard deviation across all grid points:
      u component:    2.292 m/s
      v component:    1.932 m/s
      w component:    1.201 m/s


U-component (X) statistics from the interpolated hub point:

   Mean =  16.0000 m/s
   TI   =  13.1362 %


Processing complete.  120.97 CPU seconds used.
